
     RDKit          3D

 56 58  0  0  0  0  0  0  0  0999 V2000
   12.1145   15.7740   37.9791 C   0  0  0  0  0  0  0  0  0  0  0  0
   12.9883   16.3360   36.8614 C   0  0  2  0  0  0  0  0  0  0  0  0
   12.0046   17.1461   36.0305 C   0  0  2  0  0  0  0  0  0  0  0  0
   11.1027   17.7229   37.1167 C   0  0  0  0  0  0  0  0  0  0  0  0
   11.0024   16.7095   38.1687 N   0  0  0  0  0  0  0  0  0  0  0  0
   12.0739   15.7284   34.1678 C   0  0  0  0  0  0  0  0  0  0  0  0
   14.5630   13.2242   37.2381 N   0  0  0  0  0  0  0  0  0  0  0  0
   11.2678   16.2656   35.1959 O   0  0  0  0  0  0  0  0  0  0  0  0
   11.2560   14.7195   33.3486 C   0  0  0  0  0  0  0  0  0  0  0  0
   14.7243   14.5493   36.9806 C   0  0  0  0  0  0  0  0  0  0  0  0
   11.2054   15.0892   31.9267 N   0  0  0  0  0  0  0  0  0  0  0  0
    9.9615   15.7945   31.5793 C   0  0  0  0  0  0  0  0  0  0  0  0
   15.7463   15.2597   37.6230 C   0  0  0  0  0  0  0  0  0  0  0  0
    9.1849   14.9395   30.5751 C   0  0  0  0  0  0  0  0  0  0  0  0
   16.6083   14.5912   38.5007 C   0  0  0  0  0  0  0  0  0  0  0  0
   16.4155   13.2273   38.7473 C   0  0  0  0  0  0  0  0  0  0  0  0
   15.3813   12.5523   38.0900 C   0  0  0  0  0  0  0  0  0  0  0  0
   15.1768   11.1620   38.3093 N   0  0  0  0  0  0  0  0  0  0  0  0
   13.7552   15.2548   36.0754 C   0  0  0  0  0  0  0  0  0  0  0  0
   17.6991   15.3434   39.2014 C   0  0  0  0  0  0  0  0  0  0  0  0
    8.8673   13.5599   31.0915 C   0  0  0  0  0  0  0  0  0  0  0  0
    9.7069   12.9442   32.0354 C   0  0  0  0  0  0  0  0  0  0  0  0
    9.3724   11.6933   32.5654 C   0  0  0  0  0  0  0  0  0  0  0  0
    8.2021   11.0490   32.1540 C   0  0  0  0  0  0  0  0  0  0  0  0
    7.3664   11.6516   31.2094 C   0  0  0  0  0  0  0  0  0  0  0  0
    7.6971   12.9013   30.6768 C   0  0  0  0  0  0  0  0  0  0  0  0
   10.1809   11.1074   33.4820 F   0  0  0  0  0  0  0  0  0  0  0  0
   11.6959   14.7842   37.6942 H   0  0  0  0  0  0  0  0  0  0  0  0
   12.7050   15.6531   38.9154 H   0  0  0  0  0  0  0  0  0  0  0  0
   13.7229   17.0463   37.3082 H   0  0  0  0  0  0  0  0  0  0  0  0
   12.5407   17.9403   35.4591 H   0  0  0  0  0  0  0  0  0  0  0  0
   10.0884   17.9755   36.7495 H   0  0  0  0  0  0  0  0  0  0  0  0
   11.5644   18.6540   37.5196 H   0  0  0  0  0  0  0  0  0  0  0  0
   11.1081   17.1806   39.0983 H   0  0  0  0  0  0  0  0  0  0  0  0
   12.4623   16.5172   33.4893 H   0  0  0  0  0  0  0  0  0  0  0  0
   12.9396   15.1800   34.6037 H   0  0  0  0  0  0  0  0  0  0  0  0
   10.2217   14.6684   33.7530 H   0  0  0  0  0  0  0  0  0  0  0  0
   11.7286   13.7182   33.4709 H   0  0  0  0  0  0  0  0  0  0  0  0
   11.2384   14.2190   31.3441 H   0  0  0  0  0  0  0  0  0  0  0  0
    9.3475   15.9686   32.4920 H   0  0  0  0  0  0  0  0  0  0  0  0
   10.1879   16.7766   31.1054 H   0  0  0  0  0  0  0  0  0  0  0  0
   15.8688   16.3209   37.4401 H   0  0  0  0  0  0  0  0  0  0  0  0
    9.7740   14.8577   29.6349 H   0  0  0  0  0  0  0  0  0  0  0  0
    8.2381   15.4606   30.3111 H   0  0  0  0  0  0  0  0  0  0  0  0
   17.0633   12.6960   39.4342 H   0  0  0  0  0  0  0  0  0  0  0  0
   14.2624   10.7104   38.0839 H   0  0  0  0  0  0  0  0  0  0  0  0
   15.9450   10.5730   38.7007 H   0  0  0  0  0  0  0  0  0  0  0  0
   14.3113   15.7304   35.2384 H   0  0  0  0  0  0  0  0  0  0  0  0
   13.0525   14.5139   35.6351 H   0  0  0  0  0  0  0  0  0  0  0  0
   18.5479   14.6696   39.4458 H   0  0  0  0  0  0  0  0  0  0  0  0
   17.3012   15.7794   40.1414 H   0  0  0  0  0  0  0  0  0  0  0  0
   18.0858   16.1619   38.5574 H   0  0  0  0  0  0  0  0  0  0  0  0
   10.6108   13.4396   32.3681 H   0  0  0  0  0  0  0  0  0  0  0  0
    7.9425   10.0820   32.5652 H   0  0  0  0  0  0  0  0  0  0  0  0
    6.4611   11.1508   30.8912 H   0  0  0  0  0  0  0  0  0  0  0  0
    7.0364   13.3603   29.9517 H   0  0  0  0  0  0  0  0  0  0  0  0
  2  1  1  0
  3  2  1  0
  4  3  1  0
  5  1  1  0
  5  4  1  0
  8  6  1  0
  3  8  1  0
  9  6  1  0
 10  7  2  0
 11  9  1  0
 12 11  1  0
 13 10  1  0
 14 12  1  0
 15 13  2  0
 16 15  1  0
 17  7  1  0
 17 16  2  0
 18 17  1  0
 19 10  1  0
  2 19  1  0
 20 15  1  0
 21 14  1  0
 22 21  2  0
 23 22  1  0
 24 23  2  0
 25 24  1  0
 26 25  2  0
 26 21  1  0
 27 23  1  0
  1 28  1  0
  1 29  1  0
  2 30  1  1
  3 31  1  6
  4 32  1  0
  4 33  1  0
  5 34  1  0
  6 35  1  0
  6 36  1  0
  9 37  1  0
  9 38  1  0
 11 39  1  0
 12 40  1  0
 12 41  1  0
 13 42  1  0
 14 43  1  0
 14 44  1  0
 16 45  1  0
 18 46  1  0
 18 47  1  0
 19 48  1  0
 19 49  1  0
 20 50  1  0
 20 51  1  0
 20 52  1  0
 22 53  1  0
 24 54  1  0
 25 55  1  0
 26 56  1  0
M  END
