
     RDKit          3D

 56 58  0  0  0  0  0  0  0  0999 V2000
    0.5338    3.2206   61.9440 C   0  0  0  0  0  0  0  0  0  0  0  0
   -0.3957    2.2393   62.6495 C   0  0  2  0  0  0  0  0  0  0  0  0
   -1.5242    3.1256   63.1580 C   0  0  2  0  0  0  0  0  0  0  0  0
   -1.6455    4.1249   62.0159 C   0  0  0  0  0  0  0  0  0  0  0  0
   -0.2922    4.3462   61.5007 N   0  0  0  0  0  0  0  0  0  0  0  0
   -2.1509    4.5824   64.8821 C   0  0  0  0  0  0  0  0  0  0  0  0
    2.6491    0.7558   63.3041 N   0  0  0  0  0  0  0  0  0  0  0  0
   -1.1110    3.7915   64.3425 O   0  0  0  0  0  0  0  0  0  0  0  0
   -1.6131    5.3986   66.0649 C   0  0  0  0  0  0  0  0  0  0  0  0
    1.3273    0.4956   63.1204 C   0  0  0  0  0  0  0  0  0  0  0  0
   -1.8325    6.8396   65.8735 N   0  0  0  0  0  0  0  0  0  0  0  0
   -1.1882    7.6370   66.9290 C   0  0  0  0  0  0  0  0  0  0  0  0
    0.9359   -0.5887   62.3225 C   0  0  0  0  0  0  0  0  0  0  0  0
   -0.5541    8.8821   66.3057 C   0  0  0  0  0  0  0  0  0  0  0  0
    1.9121   -1.3999   61.7333 C   0  0  0  0  0  0  0  0  0  0  0  0
    3.2659   -1.1022   61.9382 C   0  0  0  0  0  0  0  0  0  0  0  0
    3.6181   -0.0132   62.7446 C   0  0  0  0  0  0  0  0  0  0  0  0
    4.9866    0.2956   62.9884 N   0  0  0  0  0  0  0  0  0  0  0  0
    0.3011    1.4027   63.7366 C   0  0  0  0  0  0  0  0  0  0  0  0
    1.5076   -2.5480   60.8564 C   0  0  0  0  0  0  0  0  0  0  0  0
    0.3277    9.5976   67.2947 C   0  0  0  0  0  0  0  0  0  0  0  0
    1.7143    9.3723   67.3112 C   0  0  0  0  0  0  0  0  0  0  0  0
    2.5230   10.0378   68.2392 C   0  0  0  0  0  0  0  0  0  0  0  0
    1.9539   10.9269   69.1548 C   0  0  0  0  0  0  0  0  0  0  0  0
    0.5748   11.1476   69.1484 C   0  0  0  0  0  0  0  0  0  0  0  0
   -0.2371   10.4815   68.2274 C   0  0  0  0  0  0  0  0  0  0  0  0
    3.8591    9.8177   68.2551 F   0  0  0  0  0  0  0  0  0  0  0  0
    1.3078    3.6064   62.6428 H   0  0  0  0  0  0  0  0  0  0  0  0
    1.0440    2.7293   61.0847 H   0  0  0  0  0  0  0  0  0  0  0  0
   -0.8285    1.5524   61.8852 H   0  0  0  0  0  0  0  0  0  0  0  0
   -2.4553    2.5264   63.2954 H   0  0  0  0  0  0  0  0  0  0  0  0
   -2.0830    5.0920   62.3353 H   0  0  0  0  0  0  0  0  0  0  0  0
   -2.2976    3.6965   61.2197 H   0  0  0  0  0  0  0  0  0  0  0  0
   -0.3294    4.3510   60.4539 H   0  0  0  0  0  0  0  0  0  0  0  0
   -2.5803    5.2730   64.1252 H   0  0  0  0  0  0  0  0  0  0  0  0
   -2.9669    3.9316   65.2706 H   0  0  0  0  0  0  0  0  0  0  0  0
   -0.5252    5.2001   66.1821 H   0  0  0  0  0  0  0  0  0  0  0  0
   -2.1344    5.0524   66.9865 H   0  0  0  0  0  0  0  0  0  0  0  0
   -2.8604    7.0384   65.9114 H   0  0  0  0  0  0  0  0  0  0  0  0
   -1.9399    7.9310   67.6971 H   0  0  0  0  0  0  0  0  0  0  0  0
   -0.3826    7.0569   67.4355 H   0  0  0  0  0  0  0  0  0  0  0  0
   -0.1154   -0.7982   62.1639 H   0  0  0  0  0  0  0  0  0  0  0  0
   -1.3553    9.5673   65.9504 H   0  0  0  0  0  0  0  0  0  0  0  0
    0.0417    8.5862   65.4144 H   0  0  0  0  0  0  0  0  0  0  0  0
    4.0364   -1.7119   61.4816 H   0  0  0  0  0  0  0  0  0  0  0  0
    5.6406   -0.4247   63.3682 H   0  0  0  0  0  0  0  0  0  0  0  0
    5.3537    1.2523   62.7881 H   0  0  0  0  0  0  0  0  0  0  0  0
   -0.4556    0.7860   64.2685 H   0  0  0  0  0  0  0  0  0  0  0  0
    0.7860    2.0627   64.4891 H   0  0  0  0  0  0  0  0  0  0  0  0
    2.3035   -2.7780   60.1164 H   0  0  0  0  0  0  0  0  0  0  0  0
    0.5746   -2.2871   60.3146 H   0  0  0  0  0  0  0  0  0  0  0  0
    1.3307   -3.4606   61.4647 H   0  0  0  0  0  0  0  0  0  0  0  0
    2.1648    8.6832   66.6074 H   0  0  0  0  0  0  0  0  0  0  0  0
    2.5799   11.4417   69.8722 H   0  0  0  0  0  0  0  0  0  0  0  0
    0.1341   11.8324   69.8614 H   0  0  0  0  0  0  0  0  0  0  0  0
   -1.3056   10.6579   68.2394 H   0  0  0  0  0  0  0  0  0  0  0  0
  2  1  1  0
  3  2  1  0
  4  3  1  0
  5  4  1  0
  5  1  1  0
  8  6  1  0
  3  8  1  0
  9  6  1  0
 10  7  2  0
 11  9  1  0
 12 11  1  0
 13 10  1  0
 14 12  1  0
 15 13  2  0
 16 15  1  0
 17 16  2  0
 17  7  1  0
 18 17  1  0
 19 10  1  0
  2 19  1  0
 20 15  1  0
 21 14  1  0
 22 21  2  0
 23 22  1  0
 24 23  2  0
 25 24  1  0
 26 21  1  0
 26 25  2  0
 27 23  1  0
  1 28  1  0
  1 29  1  0
  2 30  1  6
  3 31  1  1
  4 32  1  0
  4 33  1  0
  5 34  1  0
  6 35  1  0
  6 36  1  0
  9 37  1  0
  9 38  1  0
 11 39  1  0
 12 40  1  0
 12 41  1  0
 13 42  1  0
 14 43  1  0
 14 44  1  0
 16 45  1  0
 18 46  1  0
 18 47  1  0
 19 48  1  0
 19 49  1  0
 20 50  1  0
 20 51  1  0
 20 52  1  0
 22 53  1  0
 24 54  1  0
 25 55  1  0
 26 56  1  0
M  END
