
     RDKit          3D

 34 35  0  0  0  0  0  0  0  0999 V2000
    3.4717   13.1965   30.1998 P   0  0  0  0  0  0  0  0  0  0  0  0
    5.1362   11.9910   28.6157 C   0  0  0  0  0  0  0  0  0  0  0  0
    3.8839   11.8594   29.2398 O   0  0  0  0  0  0  0  0  0  0  0  0
    5.8125   10.5923   28.6459 C   0  0  1  0  0  0  0  0  0  0  0  0
    5.1508    9.7274   27.7476 O   0  0  0  0  0  0  0  0  0  0  0  0
    7.3189   10.6431   28.2893 C   0  0  1  0  0  0  0  0  0  0  0  0
    8.0586    9.8092   29.1527 O   0  0  0  0  0  0  0  0  0  0  0  0
    7.3459   10.1117   26.8799 C   0  0  1  0  0  0  0  0  0  0  0  0
    8.5400    9.4387   26.5423 O   0  0  0  0  0  0  0  0  0  0  0  0
    6.1126    9.2213   26.8487 C   0  0  2  0  0  0  0  0  0  0  0  0
    5.5436    9.1500   25.4961 N   0  0  0  0  0  0  0  0  0  0  0  0
    4.8919   10.2116   24.9061 C   0  0  0  0  0  0  0  0  0  0  0  0
    4.8064   11.3289   25.4906 O   0  0  0  0  0  0  0  0  0  0  0  0
    4.3239   10.0637   23.6770 N   0  0  0  0  0  0  0  0  0  0  0  0
    4.3998    8.8837   23.0036 C   0  0  0  0  0  0  0  0  0  0  0  0
    3.8477    8.7811   21.8726 O   0  0  0  0  0  0  0  0  0  0  0  0
    5.0958    7.8024   23.5780 C   0  0  0  0  0  0  0  0  0  0  0  0
    5.6620    7.9711   24.8284 C   0  0  0  0  0  0  0  0  0  0  0  0
    4.3976   13.1673   31.3938 O   0  0  0  0  0  0  0  0  0  0  0  0
    3.6680   14.6544   29.3854 O   0  0  0  0  0  0  0  0  0  0  0  0
    1.8833   13.0604   30.7175 O   0  0  0  0  0  0  0  0  0  0  0  0
    5.3323    6.0824   22.7632 Br  0  0  0  0  0  0  0  0  0  0  0  0
    5.0120   12.3207   27.5605 H   0  0  0  0  0  0  0  0  0  0  0  0
    5.7549   12.7228   29.1720 H   0  0  0  0  0  0  0  0  0  0  0  0
    5.6902   10.1836   29.6737 H   0  0  0  0  0  0  0  0  0  0  0  0
    7.7227   11.6830   28.3190 H   0  0  0  0  0  0  0  0  0  0  0  0
    8.9709    9.7332   28.7680 H   0  0  0  0  0  0  0  0  0  0  0  0
    7.2263   10.9696   26.1836 H   0  0  0  0  0  0  0  0  0  0  0  0
    9.1869    9.5414   27.2877 H   0  0  0  0  0  0  0  0  0  0  0  0
    6.3812    8.2057   27.2229 H   0  0  0  0  0  0  0  0  0  0  0  0
    3.8194   10.8710   23.2437 H   0  0  0  0  0  0  0  0  0  0  0  0
    6.1934    7.1359   25.2711 H   0  0  0  0  0  0  0  0  0  0  0  0
    3.5202   15.3509   30.0739 H   0  0  0  0  0  0  0  0  0  0  0  0
    1.6186   12.1356   30.4816 H   0  0  0  0  0  0  0  0  0  0  0  0
  3  2  1  0
  3  1  1  0
  4  2  1  0
  5  4  1  0
  6  4  1  0
  6  7  1  0
  8  6  1  0
  8  9  1  0
 10  5  1  0
 10  8  1  0
 10 11  1  0
 12 11  1  0
 13 12  2  0
 14 12  1  0
 15 14  1  0
 16 15  2  0
 17 15  1  0
 18 17  2  0
 18 11  1  0
 19  1  2  0
 20  1  1  0
 21  1  1  0
 22 17  1  0
  2 23  1  0
  2 24  1  0
  4 25  1  1
  6 26  1  6
  7 27  1  0
  8 28  1  6
  9 29  1  0
 10 30  1  1
 14 31  1  0
 18 32  1  0
 20 33  1  0
 21 34  1  0
M  END
