
     RDKit          3D

 55 57  0  0  0  0  0  0  0  0999 V2000
    0.9123   -4.9619  -28.3196 N   0  0  0  0  0  0  0  0  0  0  0  0
    0.7608   -6.1281  -27.7162 N   0  0  0  0  0  0  0  0  0  0  0  0
    1.6815   -7.1194  -27.6175 C   0  0  0  0  0  0  0  0  0  0  0  0
    1.3235   -8.2631  -26.8859 C   0  0  0  0  0  0  0  0  0  0  0  0
    0.0482   -8.3303  -26.2929 C   0  0  0  0  0  0  0  0  0  0  0  0
   -0.8343   -7.2922  -26.4280 N   0  0  0  0  0  0  0  0  0  0  0  0
   -0.4522   -6.2058  -27.1498 C   0  0  0  0  0  0  0  0  0  0  0  0
   -1.1447   -5.0381  -27.4191 C   0  0  0  0  0  0  0  0  0  0  0  0
   -0.2399   -4.2764  -28.1500 C   0  0  0  0  0  0  0  0  0  0  0  0
    2.9793   -6.9626  -28.2066 N   0  0  0  0  0  0  0  0  0  0  0  0
    4.0759   -7.9147  -28.0310 C   0  0  0  0  0  0  0  0  0  0  0  0
    4.4910   -8.4714  -29.3621 C   0  0  0  0  0  0  0  0  0  0  0  0
    4.1307   -9.7863  -29.6985 C   0  0  0  0  0  0  0  0  0  0  0  0
    4.4856  -10.3218  -30.9376 C   0  0  0  0  0  0  0  0  0  0  0  0
    5.1960   -9.5450  -31.8550 C   0  0  0  0  0  0  0  0  0  0  0  0
    5.5492   -8.2321  -31.5313 C   0  0  0  0  0  0  0  0  0  0  0  0
    5.2015   -7.6921  -30.2883 C   0  0  0  0  0  0  0  0  0  0  0  0
   -0.2763   -9.4687  -25.4965 N   0  0  0  0  0  0  0  0  0  0  0  0
   -0.7684  -10.7275  -26.0599 C   0  0  2  0  0  0  0  0  0  0  0  0
    0.0381  -11.9372  -25.5232 C   0  0  1  0  0  0  0  0  0  0  0  0
    0.0767  -12.0202  -23.9860 C   0  0  0  0  0  0  0  0  0  0  0  0
    0.4051  -10.7696  -23.4514 O   0  0  0  0  0  0  0  0  0  0  0  0
   -0.6949  -10.6514  -27.5996 C   0  0  0  0  0  0  0  0  0  0  0  0
   -0.1279  -11.8159  -28.1476 O   0  0  0  0  0  0  0  0  0  0  0  0
   -0.4784  -13.1370  -26.0567 O   0  0  0  0  0  0  0  0  0  0  0  0
   -2.5144   -4.5963  -26.9762 C   0  0  0  0  0  0  0  0  0  0  0  0
   -2.4434   -3.9750  -25.5788 C   0  0  0  0  0  0  0  0  0  0  0  0
   -3.5321   -5.7423  -27.0299 C   0  0  0  0  0  0  0  0  0  0  0  0
    2.0026   -9.0951  -26.7699 H   0  0  0  0  0  0  0  0  0  0  0  0
   -0.4099   -3.2773  -28.5285 H   0  0  0  0  0  0  0  0  0  0  0  0
    3.1821   -6.0961  -28.7543 H   0  0  0  0  0  0  0  0  0  0  0  0
    3.8044   -8.7058  -27.3002 H   0  0  0  0  0  0  0  0  0  0  0  0
    4.9483   -7.3808  -27.5958 H   0  0  0  0  0  0  0  0  0  0  0  0
    3.5709  -10.3975  -29.0012 H   0  0  0  0  0  0  0  0  0  0  0  0
    4.2069  -11.3371  -31.1889 H   0  0  0  0  0  0  0  0  0  0  0  0
    5.4697   -9.9581  -32.8172 H   0  0  0  0  0  0  0  0  0  0  0  0
    6.0967   -7.6305  -32.2453 H   0  0  0  0  0  0  0  0  0  0  0  0
    5.4803   -6.6725  -30.0533 H   0  0  0  0  0  0  0  0  0  0  0  0
   -0.2671   -9.3520  -24.4573 H   0  0  0  0  0  0  0  0  0  0  0  0
   -1.8393  -10.8669  -25.7899 H   0  0  0  0  0  0  0  0  0  0  0  0
    1.0903  -11.8374  -25.8675 H   0  0  0  0  0  0  0  0  0  0  0  0
   -0.9110  -12.3700  -23.6048 H   0  0  0  0  0  0  0  0  0  0  0  0
    0.8318  -12.7649  -23.6586 H   0  0  0  0  0  0  0  0  0  0  0  0
   -0.4458  -10.2768  -23.3149 H   0  0  0  0  0  0  0  0  0  0  0  0
   -1.6901  -10.4407  -28.0528 H   0  0  0  0  0  0  0  0  0  0  0  0
   -0.0383   -9.7978  -27.8725 H   0  0  0  0  0  0  0  0  0  0  0  0
    0.7160  -11.5394  -28.5902 H   0  0  0  0  0  0  0  0  0  0  0  0
   -1.4449  -13.1855  -25.8354 H   0  0  0  0  0  0  0  0  0  0  0  0
   -2.8742   -3.8115  -27.6784 H   0  0  0  0  0  0  0  0  0  0  0  0
   -2.6316   -4.7387  -24.7941 H   0  0  0  0  0  0  0  0  0  0  0  0
   -3.2220   -3.1880  -25.4856 H   0  0  0  0  0  0  0  0  0  0  0  0
   -1.4659   -3.4931  -25.4003 H   0  0  0  0  0  0  0  0  0  0  0  0
   -4.1608   -5.6526  -27.9415 H   0  0  0  0  0  0  0  0  0  0  0  0
   -3.0216   -6.7282  -27.0391 H   0  0  0  0  0  0  0  0  0  0  0  0
   -4.1992   -5.7002  -26.1426 H   0  0  0  0  0  0  0  0  0  0  0  0
  2  1  1  0
  3  2  1  0
  4  3  2  0
  5  4  1  0
  6  5  2  0
  7  6  1  0
  7  2  1  0
  8  7  2  0
  9  8  1  0
  9  1  2  0
 10  3  1  0
 11 10  1  0
 12 11  1  0
 13 12  2  0
 14 13  1  0
 15 14  2  0
 16 15  1  0
 17 16  2  0
 17 12  1  0
 18  5  1  0
 19 18  1  0
 20 19  1  0
 21 20  1  0
 22 21  1  0
 19 23  1  0
 24 23  1  0
 20 25  1  0
 26  8  1  0
 26 27  1  0
 28 26  1  0
  4 29  1  0
  9 30  1  0
 10 31  1  0
 11 32  1  0
 11 33  1  0
 13 34  1  0
 14 35  1  0
 15 36  1  0
 16 37  1  0
 17 38  1  0
 18 39  1  0
 19 40  1  6
 20 41  1  6
 21 42  1  0
 21 43  1  0
 22 44  1  0
 23 45  1  0
 23 46  1  0
 24 47  1  0
 25 48  1  0
 26 49  1  0
 27 50  1  0
 27 51  1  0
 27 52  1  0
 28 53  1  0
 28 54  1  0
 28 55  1  0
M  END
