
     RDKit          3D

 36 36  0  0  0  0  0  0  0  0999 V2000
   40.0639   38.3429   26.7013 P   0  0  0  0  0  0  0  0  0  0  0  0
   39.5453   39.6021   26.0482 O   0  0  0  0  0  0  0  0  0  0  0  0
   39.8918   38.4279   28.3733 O   0  0  0  0  0  0  0  0  0  0  0  0
   41.6952   38.1440   26.3585 O   0  0  0  0  0  0  0  0  0  0  0  0
   39.2469   36.9937   26.0910 O   0  0  0  0  0  0  0  0  0  0  0  0
   43.7977   34.9769   26.1129 C   0  0  0  0  0  0  0  0  0  0  0  0
   44.7448   34.3014   26.6125 O   0  0  0  0  0  0  0  0  0  0  0  0
   42.7014   34.2547   25.3245 C   0  0  0  0  0  0  0  0  0  0  0  0
   43.8321   36.3650   26.2202 O   0  0  0  0  0  0  0  0  0  0  0  0
   41.4586   34.9502   25.2685 O   0  0  0  0  0  0  0  0  0  0  0  0
   35.4312   34.3305   26.8517 N   0  0  0  0  0  0  0  0  0  0  0  0
   36.0131   33.2417   26.2884 C   0  0  0  0  0  0  0  0  0  0  0  0
   35.2478   31.9480   26.3060 C   0  0  0  0  0  0  0  0  0  0  0  0
   37.2963   33.3557   25.6918 C   0  0  0  0  0  0  0  0  0  0  0  0
   37.8971   32.2540   25.0864 O   0  0  0  0  0  0  0  0  0  0  0  0
   37.9670   34.6069   25.6927 C   0  0  0  0  0  0  0  0  0  0  0  0
   39.2059   34.8269   24.8001 C   0  0  0  0  0  0  0  0  0  0  0  0
   40.4266   34.0508   25.0964 N   0  0  0  0  0  0  0  0  0  0  0  0
   37.3153   35.7097   26.3318 C   0  0  0  0  0  0  0  0  0  0  0  0
   37.8640   37.1083   26.3148 C   0  0  0  0  0  0  0  0  0  0  0  0
   36.0374   35.5370   26.8844 C   0  0  0  0  0  0  0  0  0  0  0  0
   39.3538   37.6348   28.6232 H   0  0  0  0  0  0  0  0  0  0  0  0
   41.8090   38.5128   25.4463 H   0  0  0  0  0  0  0  0  0  0  0  0
   43.0682   34.1069   24.2868 H   0  0  0  0  0  0  0  0  0  0  0  0
   42.5774   33.2441   25.7787 H   0  0  0  0  0  0  0  0  0  0  0  0
   42.9807   36.9121   26.1741 H   0  0  0  0  0  0  0  0  0  0  0  0
   35.9332   31.1070   26.5418 H   0  0  0  0  0  0  0  0  0  0  0  0
   34.4499   31.9746   27.0786 H   0  0  0  0  0  0  0  0  0  0  0  0
   34.7719   31.7779   25.3175 H   0  0  0  0  0  0  0  0  0  0  0  0
   37.4765   31.3340   25.0662 H   0  0  0  0  0  0  0  0  0  0  0  0
   38.8956   34.5503   23.7703 H   0  0  0  0  0  0  0  0  0  0  0  0
   39.4443   35.8985   24.6970 H   0  0  0  0  0  0  0  0  0  0  0  0
   40.2756   33.5792   26.0199 H   0  0  0  0  0  0  0  0  0  0  0  0
   37.5917   37.6184   27.2658 H   0  0  0  0  0  0  0  0  0  0  0  0
   37.4084   37.7047   25.4935 H   0  0  0  0  0  0  0  0  0  0  0  0
   35.5124   36.3698   27.3355 H   0  0  0  0  0  0  0  0  0  0  0  0
  2  1  2  0
  3  1  1  0
  4  1  1  0
  5  1  1  0
  7  6  2  0
  8  6  1  0
  9  6  1  0
 10  8  1  0
 12 11  2  0
 13 12  1  0
 14 12  1  0
 15 14  1  0
 16 14  2  0
 17 16  1  0
 18 17  1  0
 18 10  1  0
 19 16  1  0
 20 19  1  0
 20  5  1  0
 21 19  2  0
 21 11  1  0
  3 22  1  0
  4 23  1  0
  8 24  1  0
  8 25  1  0
  9 26  1  0
 13 27  1  0
 13 28  1  0
 13 29  1  0
 15 30  1  0
 17 31  1  0
 17 32  1  0
 18 33  1  0
 20 34  1  0
 20 35  1  0
 21 36  1  0
M  END
