
     RDKit          3D

 36 36  0  0  0  0  0  0  0  0999 V2000
   37.2249   43.7499   72.7456 P   0  0  0  0  0  0  0  0  0  0  0  0
   37.2710   42.6979   71.6625 O   0  0  0  0  0  0  0  0  0  0  0  0
   38.7806   44.2381   73.1579 O   0  0  0  0  0  0  0  0  0  0  0  0
   36.4787   43.1345   74.1183 O   0  0  0  0  0  0  0  0  0  0  0  0
   36.3153   45.0827   72.2398 O   0  0  0  0  0  0  0  0  0  0  0  0
   42.1455   47.7631   74.7420 C   0  0  0  0  0  0  0  0  0  0  0  0
   43.2187   48.4321   74.7020 O   0  0  0  0  0  0  0  0  0  0  0  0
   40.8359   48.5008   75.0111 C   0  0  0  0  0  0  0  0  0  0  0  0
   42.2044   46.3810   74.5815 O   0  0  0  0  0  0  0  0  0  0  0  0
   39.6526   47.7598   74.7335 O   0  0  0  0  0  0  0  0  0  0  0  0
   34.8461   48.8252   70.5884 N   0  0  0  0  0  0  0  0  0  0  0  0
   35.0926   49.7349   71.5632 C   0  0  0  0  0  0  0  0  0  0  0  0
   34.3149   51.0230   71.5414 C   0  0  0  0  0  0  0  0  0  0  0  0
   36.0457   49.4416   72.5761 C   0  0  0  0  0  0  0  0  0  0  0  0
   36.2830   50.3506   73.6050 O   0  0  0  0  0  0  0  0  0  0  0  0
   36.7521   48.2066   72.5535 C   0  0  0  0  0  0  0  0  0  0  0  0
   37.5682   47.7441   73.7749 C   0  0  0  0  0  0  0  0  0  0  0  0
   38.6897   48.5995   74.2106 N   0  0  0  0  0  0  0  0  0  0  0  0
   36.4658   47.2966   71.4846 C   0  0  0  0  0  0  0  0  0  0  0  0
   37.0670   45.9128   71.3913 C   0  0  0  0  0  0  0  0  0  0  0  0
   35.4910   47.6369   70.5297 C   0  0  0  0  0  0  0  0  0  0  0  0
   39.1606   43.4745   73.6612 H   0  0  0  0  0  0  0  0  0  0  0  0
   35.5235   43.0492   73.8705 H   0  0  0  0  0  0  0  0  0  0  0  0
   40.8215   48.7863   76.0841 H   0  0  0  0  0  0  0  0  0  0  0  0
   40.8716   49.4479   74.4224 H   0  0  0  0  0  0  0  0  0  0  0  0
   42.8633   45.9592   73.9378 H   0  0  0  0  0  0  0  0  0  0  0  0
   33.6957   51.1053   72.4592 H   0  0  0  0  0  0  0  0  0  0  0  0
   35.0123   51.8846   71.4808 H   0  0  0  0  0  0  0  0  0  0  0  0
   33.6402   51.0582   70.6595 H   0  0  0  0  0  0  0  0  0  0  0  0
   36.8771   51.1632   73.5029 H   0  0  0  0  0  0  0  0  0  0  0  0
   36.8469   47.6455   74.6174 H   0  0  0  0  0  0  0  0  0  0  0  0
   37.9299   46.7128   73.6389 H   0  0  0  0  0  0  0  0  0  0  0  0
   38.3432   49.2123   74.9873 H   0  0  0  0  0  0  0  0  0  0  0  0
   38.1532   45.9561   71.6315 H   0  0  0  0  0  0  0  0  0  0  0  0
   36.9967   45.5243   70.3513 H   0  0  0  0  0  0  0  0  0  0  0  0
   35.2361   46.9481   69.7342 H   0  0  0  0  0  0  0  0  0  0  0  0
  2  1  2  0
  3  1  1  0
  4  1  1  0
  5  1  1  0
  7  6  2  0
  8  6  1  0
  9  6  1  0
 10  8  1  0
 12 11  2  0
 13 12  1  0
 14 12  1  0
 15 14  1  0
 16 14  2  0
 17 16  1  0
 18 17  1  0
 18 10  1  0
 19 16  1  0
 20 19  1  0
 20  5  1  0
 21 19  2  0
 21 11  1  0
  3 22  1  0
  4 23  1  0
  8 24  1  0
  8 25  1  0
  9 26  1  0
 13 27  1  0
 13 28  1  0
 13 29  1  0
 15 30  1  0
 17 31  1  0
 17 32  1  0
 18 33  1  0
 20 34  1  0
 20 35  1  0
 21 36  1  0
M  END
