
     RDKit          3D

 42 44  0  0  0  0  0  0  0  0999 V2000
    4.6962   24.7681   26.1378 C   0  0  0  0  0  0  0  0  0  0  0  0
    8.4078   31.6006   19.2724 C   0  0  0  0  0  0  0  0  0  0  0  0
    7.2018   28.2712   27.1996 C   0  0  0  0  0  0  0  0  0  0  0  0
    5.0168   29.2339   27.6015 C   0  0  0  0  0  0  0  0  0  0  0  0
    6.6090   27.1988   26.5382 C   0  0  0  0  0  0  0  0  0  0  0  0
    4.4238   28.1681   26.9342 C   0  0  0  0  0  0  0  0  0  0  0  0
    8.4348   32.2792   22.1078 C   0  0  0  0  0  0  0  0  0  0  0  0
   10.7608   32.8993   21.8535 C   0  0  0  0  0  0  0  0  0  0  0  0
    8.4670   32.6988   23.4357 C   0  0  0  0  0  0  0  0  0  0  0  0
   10.7951   33.3184   23.1835 C   0  0  0  0  0  0  0  0  0  0  0  0
    9.7178   33.6335   25.4009 C   0  0  0  0  0  0  0  0  0  0  0  0
    6.4047   29.3061   27.7082 C   0  0  0  0  0  0  0  0  0  0  0  0
    5.2224   27.1514   26.3849 C   0  0  0  0  0  0  0  0  0  0  0  0
    9.5852   32.3820   21.3051 C   0  0  0  0  0  0  0  0  0  0  0  0
    8.9175   33.2215   27.8210 C   0  0  0  0  0  0  0  0  0  0  0  0
    9.6528   33.2082   23.9891 C   0  0  0  0  0  0  0  0  0  0  0  0
    7.7181   31.3245   27.8606 C   0  0  0  0  0  0  0  0  0  0  0  0
    8.9582   32.9198   26.4522 C   0  0  0  0  0  0  0  0  0  0  0  0
    9.5254   34.3646   28.4152 N   0  0  0  0  0  0  0  0  0  0  0  0
    8.2305   32.3348   28.5822 N   0  0  0  0  0  0  0  0  0  0  0  0
    6.9758   30.4091   28.3989 N   0  0  0  0  0  0  0  0  0  0  0  0
   10.5001   34.5696   25.7148 O   0  0  0  0  0  0  0  0  0  0  0  0
    4.6638   26.1052   25.6568 O   0  0  0  0  0  0  0  0  0  0  0  0
    9.5879   31.9929   19.9632 O   0  0  0  0  0  0  0  0  0  0  0  0
    8.0925   31.4827   26.2200 S   0  0  0  0  0  0  0  0  0  0  0  0
    3.7272   24.2796   25.9083 H   0  0  0  0  0  0  0  0  0  0  0  0
    4.8479   24.7552   27.2386 H   0  0  0  0  0  0  0  0  0  0  0  0
    5.5002   24.1942   25.6318 H   0  0  0  0  0  0  0  0  0  0  0  0
    7.6547   32.4168   19.3015 H   0  0  0  0  0  0  0  0  0  0  0  0
    7.9912   30.6729   19.7189 H   0  0  0  0  0  0  0  0  0  0  0  0
    8.6623   31.3943   18.2127 H   0  0  0  0  0  0  0  0  0  0  0  0
    8.2757   28.2808   27.3324 H   0  0  0  0  0  0  0  0  0  0  0  0
    4.3959   30.0162   28.0204 H   0  0  0  0  0  0  0  0  0  0  0  0
    7.2281   26.4091   26.1317 H   0  0  0  0  0  0  0  0  0  0  0  0
    3.3462   28.1422   26.8502 H   0  0  0  0  0  0  0  0  0  0  0  0
    7.5049   31.8910   21.7162 H   0  0  0  0  0  0  0  0  0  0  0  0
   11.6511   32.9832   21.2430 H   0  0  0  0  0  0  0  0  0  0  0  0
    7.5590   32.6484   24.0229 H   0  0  0  0  0  0  0  0  0  0  0  0
   11.7193   33.7121   23.5889 H   0  0  0  0  0  0  0  0  0  0  0  0
   10.5214   34.6212   28.2541 H   0  0  0  0  0  0  0  0  0  0  0  0
    8.9310   35.0617   28.9163 H   0  0  0  0  0  0  0  0  0  0  0  0
    8.1011   32.4337   29.6146 H   0  0  0  0  0  0  0  0  0  0  0  0
  5  3  2  0
  6  4  1  0
  9  7  2  0
 10  8  1  0
 12  4  2  0
 12  3  1  0
 13  6  2  0
 13  5  1  0
 14  7  1  0
 14  8  2  0
 16 11  1  0
 16  9  1  0
 16 10  2  0
 18 11  1  0
 18 15  2  0
 19 15  1  0
 20 17  1  0
 20 15  1  0
 21 12  1  0
 21 17  2  3
 22 11  2  0
 23  1  1  0
 23 13  1  0
 24  2  1  0
 24 14  1  0
 25 18  1  0
 25 17  1  0
  1 26  1  0
  1 27  1  0
  1 28  1  0
  2 29  1  0
  2 30  1  0
  2 31  1  0
  3 32  1  0
  4 33  1  0
  5 34  1  0
  6 35  1  0
  7 36  1  0
  8 37  1  0
  9 38  1  0
 10 39  1  0
 19 40  1  0
 19 41  1  0
 20 42  1  0
M  END
