
     RDKit          3D

 42 44  0  0  0  0  0  0  0  0999 V2000
    6.4835   26.6584   23.6440 C   0  0  0  0  0  0  0  0  0  0  0  0
   12.5907   32.6706   19.5709 C   0  0  0  0  0  0  0  0  0  0  0  0
    8.1968   29.0262   26.9465 C   0  0  0  0  0  0  0  0  0  0  0  0
    5.9217   29.8539   26.9796 C   0  0  0  0  0  0  0  0  0  0  0  0
    7.7871   27.9265   26.1970 C   0  0  0  0  0  0  0  0  0  0  0  0
    5.5123   28.7610   26.2242 C   0  0  0  0  0  0  0  0  0  0  0  0
   12.3291   33.6368   22.3093 C   0  0  0  0  0  0  0  0  0  0  0  0
    9.9296   33.4283   22.0670 C   0  0  0  0  0  0  0  0  0  0  0  0
   12.1633   34.0092   23.6413 C   0  0  0  0  0  0  0  0  0  0  0  0
    9.7619   33.8027   23.4002 C   0  0  0  0  0  0  0  0  0  0  0  0
   10.6751   34.5289   25.5946 C   0  0  0  0  0  0  0  0  0  0  0  0
    7.2659   30.0074   27.3149 C   0  0  0  0  0  0  0  0  0  0  0  0
    6.4504   27.7984   25.8160 C   0  0  0  0  0  0  0  0  0  0  0  0
   11.2085   33.3386   21.5131 C   0  0  0  0  0  0  0  0  0  0  0  0
    9.4978   34.0566   27.8436 C   0  0  0  0  0  0  0  0  0  0  0  0
   10.8763   34.1100   24.1937 C   0  0  0  0  0  0  0  0  0  0  0  0
    8.4181   32.0952   27.6833 C   0  0  0  0  0  0  0  0  0  0  0  0
    9.7886   33.7668   26.5028 C   0  0  0  0  0  0  0  0  0  0  0  0
    9.9299   35.2281   28.5295 N   0  0  0  0  0  0  0  0  0  0  0  0
    8.7420   33.1278   28.4788 N   0  0  0  0  0  0  0  0  0  0  0  0
    7.6476   31.1361   28.0897 N   0  0  0  0  0  0  0  0  0  0  0  0
   11.3383   35.5053   26.0347 O   0  0  0  0  0  0  0  0  0  0  0  0
    6.0839   26.7275   25.0063 O   0  0  0  0  0  0  0  0  0  0  0  0
   11.3336   32.9402   20.1799 O   0  0  0  0  0  0  0  0  0  0  0  0
    9.0576   32.2850   26.1304 S   0  0  0  0  0  0  0  0  0  0  0  0
    6.9266   25.6604   23.4492 H   0  0  0  0  0  0  0  0  0  0  0  0
    7.2476   27.4346   23.4238 H   0  0  0  0  0  0  0  0  0  0  0  0
    5.6055   26.7823   22.9764 H   0  0  0  0  0  0  0  0  0  0  0  0
   13.1258   31.8726   20.1285 H   0  0  0  0  0  0  0  0  0  0  0  0
   13.2052   33.5948   19.5318 H   0  0  0  0  0  0  0  0  0  0  0  0
   12.4202   32.3203   18.5324 H   0  0  0  0  0  0  0  0  0  0  0  0
    9.2314   29.0982   27.2555 H   0  0  0  0  0  0  0  0  0  0  0  0
    5.1942   30.5943   27.2890 H   0  0  0  0  0  0  0  0  0  0  0  0
    8.5112   27.1786   25.8995 H   0  0  0  0  0  0  0  0  0  0  0  0
    4.4671   28.6720   25.9627 H   0  0  0  0  0  0  0  0  0  0  0  0
   13.3346   33.5713   21.9175 H   0  0  0  0  0  0  0  0  0  0  0  0
    9.0612   33.1998   21.4621 H   0  0  0  0  0  0  0  0  0  0  0  0
   13.0416   34.1944   24.2464 H   0  0  0  0  0  0  0  0  0  0  0  0
    8.7602   33.8701   23.8071 H   0  0  0  0  0  0  0  0  0  0  0  0
   10.7458   35.2340   29.1760 H   0  0  0  0  0  0  0  0  0  0  0  0
    9.5173   36.1536   28.2777 H   0  0  0  0  0  0  0  0  0  0  0  0
    8.4328   33.2124   29.4736 H   0  0  0  0  0  0  0  0  0  0  0  0
  5  3  2  0
  6  4  1  0
  9  7  2  0
 10  8  1  0
 12  4  2  0
 12  3  1  0
 13  6  2  0
 13  5  1  0
 14  7  1  0
 14  8  2  0
 16 11  1  0
 16  9  1  0
 16 10  2  0
 18 11  1  0
 18 15  2  0
 19 15  1  0
 20 17  1  0
 20 15  1  0
 21 12  1  0
 21 17  2  3
 22 11  2  0
 23  1  1  0
 23 13  1  0
 24  2  1  0
 24 14  1  0
 25 18  1  0
 25 17  1  0
  1 26  1  0
  1 27  1  0
  1 28  1  0
  2 29  1  0
  2 30  1  0
  2 31  1  0
  3 32  1  0
  4 33  1  0
  5 34  1  0
  6 35  1  0
  7 36  1  0
  8 37  1  0
  9 38  1  0
 10 39  1  0
 19 40  1  0
 19 41  1  0
 20 42  1  0
M  END
