
     RDKit          3D

 32 33  0  0  0  0  0  0  0  0999 V2000
   15.4522    3.7935   47.2904 N   0  0  0  0  0  0  0  0  0  0  0  0
   15.5285    3.3624   48.5735 C   0  0  0  0  0  0  0  0  0  0  0  0
   14.4293    2.6695   49.1489 N   0  0  0  0  0  0  0  0  0  0  0  0
   16.6533    3.5944   49.3071 N   0  0  0  0  0  0  0  0  0  0  0  0
   17.7154    4.2644   48.7797 C   0  0  0  0  0  0  0  0  0  0  0  0
   17.6458    4.7248   47.4585 C   0  0  0  0  0  0  0  0  0  0  0  0
   18.7391    4.4730   49.4879 O   0  0  0  0  0  0  0  0  0  0  0  0
   18.6987    5.4920   46.8605 N   0  0  0  0  0  0  0  0  0  0  0  0
   18.3686    6.3625   45.7244 C   0  0  2  0  0  0  0  0  0  0  0  0
   17.4868    5.5930   44.7107 C   0  0  0  0  0  0  0  0  0  0  0  0
   16.4826    4.4640   46.7217 C   0  0  0  0  0  0  0  0  0  0  0  0
   16.3693    4.9295   45.3795 N   0  0  0  0  0  0  0  0  0  0  0  0
   19.6580    6.9545   45.0944 C   0  0  1  0  0  0  0  0  0  0  0  0
   19.7903    6.5536   43.7513 O   0  0  0  0  0  0  0  0  0  0  0  0
   19.6930    8.4945   45.1766 C   0  0  1  0  0  0  0  0  0  0  0  0
   18.6254    9.0198   44.4295 O   0  0  0  0  0  0  0  0  0  0  0  0
   19.5786    8.9688   46.6257 C   0  0  0  0  0  0  0  0  0  0  0  0
   14.4684    2.3302   50.1356 H   0  0  0  0  0  0  0  0  0  0  0  0
   13.5665    2.4916   48.5882 H   0  0  0  0  0  0  0  0  0  0  0  0
   16.7025    3.2561   50.2951 H   0  0  0  0  0  0  0  0  0  0  0  0
   19.6230    5.5747   47.3413 H   0  0  0  0  0  0  0  0  0  0  0  0
   17.7587    7.2043   46.1218 H   0  0  0  0  0  0  0  0  0  0  0  0
   17.0750    6.2914   43.9524 H   0  0  0  0  0  0  0  0  0  0  0  0
   18.0961    4.8246   44.1886 H   0  0  0  0  0  0  0  0  0  0  0  0
   15.5055    4.7149   44.8320 H   0  0  0  0  0  0  0  0  0  0  0  0
   20.5228    6.5706   45.6890 H   0  0  0  0  0  0  0  0  0  0  0  0
   20.4623    7.1492   43.3286 H   0  0  0  0  0  0  0  0  0  0  0  0
   20.6650    8.8629   44.7742 H   0  0  0  0  0  0  0  0  0  0  0  0
   18.6554   10.0062   44.5392 H   0  0  0  0  0  0  0  0  0  0  0  0
   19.6192   10.0780   46.6771 H   0  0  0  0  0  0  0  0  0  0  0  0
   20.4178    8.5556   47.2246 H   0  0  0  0  0  0  0  0  0  0  0  0
   18.6262    8.6183   47.0769 H   0  0  0  0  0  0  0  0  0  0  0  0
  2  1  2  0
  3  2  1  0
  4  2  1  0
  5  4  1  0
  6  5  1  0
  7  5  2  0
  8  6  1  0
  9  8  1  0
  9 10  1  0
 11  1  1  0
 11  6  2  0
 12 11  1  0
 12 10  1  0
 13  9  1  0
 13 14  1  0
 15 13  1  0
 16 15  1  0
 15 17  1  0
  3 18  1  0
  3 19  1  0
  4 20  1  0
  8 21  1  0
  9 22  1  1
 10 23  1  0
 10 24  1  0
 12 25  1  0
 13 26  1  1
 14 27  1  0
 15 28  1  6
 16 29  1  0
 17 30  1  0
 17 31  1  0
 17 32  1  0
M  END
