
     RDKit          3D

 34 36  0  0  0  0  0  0  0  0999 V2000
   17.2565   -3.0075    1.1837 N   0  0  0  0  0  0  0  0  0  0  0  0
   17.3966   -3.7561    0.0825 C   0  0  0  0  0  0  0  0  0  0  0  0
   16.0522   -2.9132    2.0136 C   0  0  2  0  0  0  0  0  0  0  0  0
   18.4628   -2.3814    1.2849 C   0  0  0  0  0  0  0  0  0  0  0  0
   18.6354   -3.5910   -0.4339 C   0  0  0  0  0  0  0  0  0  0  0  0
   16.4707   -4.5657   -0.4869 N   0  0  0  0  0  0  0  0  0  0  0  0
   15.6749   -1.5710    2.2064 O   0  0  0  0  0  0  0  0  0  0  0  0
   16.2442   -3.5397    3.3824 C   0  0  1  0  0  0  0  0  0  0  0  0
   19.3399   -2.7153    0.3035 N   0  0  0  0  0  0  0  0  0  0  0  0
   18.8116   -1.4661    2.3131 N   0  0  0  0  0  0  0  0  0  0  0  0
   19.0056   -4.2901   -1.5767 C   0  0  0  0  0  0  0  0  0  0  0  0
   16.8195   -5.2485   -1.6154 C   0  0  0  0  0  0  0  0  0  0  0  0
   14.9902   -1.5171    3.4447 C   0  0  1  0  0  0  0  0  0  0  0  0
   15.1072   -2.8881    4.1461 C   0  0  1  0  0  0  0  0  0  0  0  0
   16.1626   -4.9422    3.3318 O   0  0  0  0  0  0  0  0  0  0  0  0
   18.0763   -5.1138   -2.1478 N   0  0  0  0  0  0  0  0  0  0  0  0
   20.3065   -4.1733   -2.1396 N   0  0  0  0  0  0  0  0  0  0  0  0
   15.5668   -0.3588    4.2747 C   0  0  0  0  0  0  0  0  0  0  0  0
   13.9043   -3.6046    3.9737 O   0  0  0  0  0  0  0  0  0  0  0  0
   15.0639    0.8721    3.8324 O   0  0  0  0  0  0  0  0  0  0  0  0
   15.2092   -3.4293    1.4964 H   0  0  0  0  0  0  0  0  0  0  0  0
   17.2125   -3.2429    3.8325 H   0  0  0  0  0  0  0  0  0  0  0  0
   19.7097   -1.6021    2.8274 H   0  0  0  0  0  0  0  0  0  0  0  0
   18.0733   -0.9323    2.8069 H   0  0  0  0  0  0  0  0  0  0  0  0
   16.1024   -5.9042   -2.0899 H   0  0  0  0  0  0  0  0  0  0  0  0
   13.9195   -1.2861    3.2471 H   0  0  0  0  0  0  0  0  0  0  0  0
   15.3516   -2.7897    5.2301 H   0  0  0  0  0  0  0  0  0  0  0  0
   16.8979   -5.2438    2.7371 H   0  0  0  0  0  0  0  0  0  0  0  0
   21.0920   -4.7539   -1.7707 H   0  0  0  0  0  0  0  0  0  0  0  0
   20.4956   -3.5106   -2.9243 H   0  0  0  0  0  0  0  0  0  0  0  0
   16.6810   -0.3758    4.2386 H   0  0  0  0  0  0  0  0  0  0  0  0
   15.2700   -0.4964    5.3361 H   0  0  0  0  0  0  0  0  0  0  0  0
   13.9033   -4.3278    4.6537 H   0  0  0  0  0  0  0  0  0  0  0  0
   14.4405    1.1978    4.5327 H   0  0  0  0  0  0  0  0  0  0  0  0
  2  1  1  0
  3  1  1  0
  4  1  1  0
  5  2  2  0
  6  2  1  0
  7  3  1  0
  8  3  1  0
  9  5  1  0
  9  4  2  0
 10  4  1  0
 11  5  1  0
 12  6  2  0
 13  7  1  0
 14 13  1  0
 14  8  1  0
  8 15  1  0
 16 12  1  0
 16 11  2  0
 17 11  1  0
 13 18  1  0
 14 19  1  0
 20 18  1  0
  3 21  1  6
  8 22  1  1
 10 23  1  0
 10 24  1  0
 12 25  1  0
 13 26  1  6
 14 27  1  1
 15 28  1  0
 17 29  1  0
 17 30  1  0
 18 31  1  0
 18 32  1  0
 19 33  1  0
 20 34  1  0
M  END
