
     RDKit          3D

 38 40  0  0  0  0  0  0  0  0999 V2000
  -10.0187    0.6680   22.9912 P   0  0  0  0  0  0  0  0  0  0  0  0
   -8.1325   -0.4680   24.3559 C   0  0  0  0  0  0  0  0  0  0  0  0
   -9.3342   -0.7287   23.6649 O   0  0  0  0  0  0  0  0  0  0  0  0
   -8.1385   -1.3167   25.6434 C   0  0  1  0  0  0  0  0  0  0  0  0
   -6.8124   -1.5235   26.0924 O   0  0  0  0  0  0  0  0  0  0  0  0
   -8.9489   -0.6411   26.7554 C   0  0  1  0  0  0  0  0  0  0  0  0
   -9.6952   -1.6056   27.4586 O   0  0  0  0  0  0  0  0  0  0  0  0
   -7.8741   -0.0550   27.6319 C   0  0  0  0  0  0  0  0  0  0  0  0
   -6.7139   -1.0027   27.3979 C   0  0  2  0  0  0  0  0  0  0  0  0
   -2.9386    1.9946   25.4085 N   0  0  0  0  0  0  0  0  0  0  0  0
   -4.1011    1.5711   24.8036 C   0  0  0  0  0  0  0  0  0  0  0  0
   -4.3771    1.9578   23.4638 N   0  0  0  0  0  0  0  0  0  0  0  0
   -4.9933    0.7804   25.4765 N   0  0  0  0  0  0  0  0  0  0  0  0
   -4.6905    0.4315   26.7522 C   0  0  0  0  0  0  0  0  0  0  0  0
   -3.5415    0.8376   27.3736 C   0  0  0  0  0  0  0  0  0  0  0  0
   -2.6275    1.6463   26.6931 C   0  0  0  0  0  0  0  0  0  0  0  0
   -1.5541    2.0492   27.2225 O   0  0  0  0  0  0  0  0  0  0  0  0
   -3.5080    0.3407   28.6268 N   0  0  0  0  0  0  0  0  0  0  0  0
   -4.6628   -0.3636   28.7231 C   0  0  0  0  0  0  0  0  0  0  0  0
   -5.0047   -0.9874   29.7620 O   0  0  0  0  0  0  0  0  0  0  0  0
   -5.4165   -0.3370   27.5941 N   0  0  0  0  0  0  0  0  0  0  0  0
   -9.7883    1.8875   23.8508 O   0  0  0  0  0  0  0  0  0  0  0  0
   -9.4369    0.8877   21.4356 O   0  0  0  0  0  0  0  0  0  0  0  0
  -11.6657    0.4001   22.8833 O   0  0  0  0  0  0  0  0  0  0  0  0
   -7.9583    0.6029   24.6097 H   0  0  0  0  0  0  0  0  0  0  0  0
   -7.2888   -0.7945   23.7106 H   0  0  0  0  0  0  0  0  0  0  0  0
   -8.5754   -2.3129   25.4052 H   0  0  0  0  0  0  0  0  0  0  0  0
   -9.6273    0.1543   26.3653 H   0  0  0  0  0  0  0  0  0  0  0  0
  -10.3324   -1.1071   28.0342 H   0  0  0  0  0  0  0  0  0  0  0  0
   -7.6225    0.9698   27.2788 H   0  0  0  0  0  0  0  0  0  0  0  0
   -8.1682   -0.0181   28.7036 H   0  0  0  0  0  0  0  0  0  0  0  0
   -6.8070   -1.8566   28.1068 H   0  0  0  0  0  0  0  0  0  0  0  0
   -2.2737    2.5982   24.8733 H   0  0  0  0  0  0  0  0  0  0  0  0
   -4.4544    2.9688   23.2138 H   0  0  0  0  0  0  0  0  0  0  0  0
   -4.5056    1.2415   22.7152 H   0  0  0  0  0  0  0  0  0  0  0  0
   -2.7683    0.4694   29.3527 H   0  0  0  0  0  0  0  0  0  0  0  0
  -10.1776    1.3287   20.9480 H   0  0  0  0  0  0  0  0  0  0  0  0
  -11.8016   -0.4998   23.2740 H   0  0  0  0  0  0  0  0  0  0  0  0
  3  2  1  0
  3  1  1  0
  4  2  1  0
  5  4  1  0
  6  4  1  0
  6  7  1  0
  8  6  1  0
  9  5  1  0
  9  8  1  0
 11 10  1  0
 12 11  1  0
 13 11  2  0
 14 13  1  0
 15 14  2  0
 16 15  1  0
 16 10  1  0
 17 16  2  0
 18 15  1  0
 19 18  1  0
 20 19  2  0
  9 21  1  0
 21 14  1  0
 21 19  1  0
 22  1  2  0
 23  1  1  0
 24  1  1  0
  2 25  1  0
  2 26  1  0
  4 27  1  6
  6 28  1  6
  7 29  1  0
  8 30  1  0
  8 31  1  0
  9 32  1  1
 10 33  1  0
 12 34  1  0
 12 35  1  0
 18 36  1  0
 23 37  1  0
 24 38  1  0
M  END
