
     RDKit          3D

 73 77  0  0  0  0  0  0  0  0999 V2000
   34.6358   14.4177    7.0095 P   0  0  1  0  0  0  0  0  0  0  0  0
   33.3297   16.9274    6.7336 P   0  0  2  0  0  0  0  0  0  0  0  0
   36.8872   13.1917   12.5274 C   0  0  1  0  0  0  0  0  0  0  0  0
   28.9806   18.9567    9.1423 C   0  0  1  0  0  0  0  0  0  0  0  0
   37.0361   14.6415   17.4450 N   0  0  0  0  0  0  0  0  0  0  0  0
   28.6016   20.1302    8.3428 N   0  0  0  0  0  0  0  0  0  0  0  0
   34.1169   12.8237    7.0548 O   0  0  0  0  0  0  0  0  0  0  0  0
   33.0649   17.1255    5.0861 O   0  0  0  0  0  0  0  0  0  0  0  0
   37.5651   15.2477   16.3362 C   0  0  0  0  0  0  0  0  0  0  0  0
   37.1788   12.0650   11.5422 C   0  0  2  0  0  0  0  0  0  0  0  0
   28.7771   17.6206    8.4182 C   0  0  2  0  0  0  0  0  0  0  0  0
   27.9070   21.2316    8.9481 C   0  0  0  0  0  0  0  0  0  0  0  0
   35.4029   14.6398    5.7209 O   0  0  0  0  0  0  0  0  0  0  0  0
   38.3969   11.4046   11.7743 O   0  0  0  0  0  0  0  0  0  0  0  0
   27.4465   17.1755    8.4198 O   0  0  0  0  0  0  0  0  0  0  0  0
   34.6378   17.5623    7.1511 O   0  0  0  0  0  0  0  0  0  0  0  0
   37.2057   12.8634   10.2387 C   0  0  2  0  0  0  0  0  0  0  0  0
   29.6705   16.7261    9.2407 C   0  0  2  0  0  0  0  0  0  0  0  0
   27.7206   22.3909    8.2864 C   0  0  0  0  0  0  0  0  0  0  0  0
   37.4251   14.6754   15.1014 N   0  0  0  0  0  0  0  0  0  0  0  0
   33.1927   15.2884    7.1127 O   0  0  0  0  0  0  0  0  0  0  0  0
   38.5127   13.2680    9.8819 O   0  0  0  0  0  0  0  0  0  0  0  0
   28.9610   16.2636   10.3700 O   0  0  0  0  0  0  0  0  0  0  0  0
   36.7375   13.5075   15.0028 C   0  0  0  0  0  0  0  0  0  0  0  0
   36.3151   14.0906   10.5572 C   0  0  2  0  0  0  0  0  0  0  0  0
   30.7982   17.6937    9.6674 C   0  0  2  0  0  0  0  0  0  0  0  0
   28.1762   22.5468    6.8648 C   0  0  0  0  0  0  0  0  0  0  0  0
   35.8848   13.9670   11.9050 O   0  0  0  0  0  0  0  0  0  0  0  0
   30.3549   19.0223    9.4572 O   0  0  0  0  0  0  0  0  0  0  0  0
   36.1983   12.8922   16.0781 C   0  0  0  0  0  0  0  0  0  0  0  0
   35.1344   14.2353    9.5663 C   0  0  0  0  0  0  0  0  0  0  0  0
   32.1445   17.4565    8.9364 C   0  0  0  0  0  0  0  0  0  0  0  0
   28.9764   21.3982    6.3449 C   0  0  0  0  0  0  0  0  0  0  0  0
   35.6544   14.7197    8.3384 O   0  0  0  0  0  0  0  0  0  0  0  0
   32.0044   17.6265    7.5410 O   0  0  0  0  0  0  0  0  0  0  0  0
   36.3538   13.4603   17.3484 C   0  0  0  0  0  0  0  0  0  0  0  0
   29.1676   20.2859    7.0429 C   0  0  0  0  0  0  0  0  0  0  0  0
   35.8549   12.8311   18.5220 N   0  0  0  0  0  0  0  0  0  0  0  0
   27.0753   23.5427    8.9506 C   0  0  0  0  0  0  0  0  0  0  0  0
   35.5742   11.7558   15.6941 N   0  0  0  0  0  0  0  0  0  0  0  0
   26.4779   23.3839   10.2350 N   0  0  0  0  0  0  0  0  0  0  0  0
   27.0668   24.6850    8.3986 O   0  0  0  0  0  0  0  0  0  0  0  0
   35.7651   11.7322   14.3400 C   0  0  0  0  0  0  0  0  0  0  0  0
   36.4898   12.7941   13.8888 N   0  0  0  0  0  0  0  0  0  0  0  0
   37.8095   13.8138   12.6298 H   0  0  0  0  0  0  0  0  0  0  0  0
   28.3960   18.9444   10.0924 H   0  0  0  0  0  0  0  0  0  0  0  0
   33.5331   12.7226    6.2610 H   0  0  0  0  0  0  0  0  0  0  0  0
   32.1941   16.6855    4.9158 H   0  0  0  0  0  0  0  0  0  0  0  0
   38.1036   16.1797   16.4386 H   0  0  0  0  0  0  0  0  0  0  0  0
   36.3356   11.3371   11.5143 H   0  0  0  0  0  0  0  0  0  0  0  0
   29.1648   17.6226    7.3775 H   0  0  0  0  0  0  0  0  0  0  0  0
   27.5203   21.0941    9.9472 H   0  0  0  0  0  0  0  0  0  0  0  0
   38.2633   10.8577   12.5914 H   0  0  0  0  0  0  0  0  0  0  0  0
   26.9531   17.7773    7.8039 H   0  0  0  0  0  0  0  0  0  0  0  0
   36.7908   12.2424    9.4144 H   0  0  0  0  0  0  0  0  0  0  0  0
   30.0408   15.8677    8.6323 H   0  0  0  0  0  0  0  0  0  0  0  0
   38.9014   13.7929   10.6287 H   0  0  0  0  0  0  0  0  0  0  0  0
   29.3690   15.3934   10.6180 H   0  0  0  0  0  0  0  0  0  0  0  0
   36.9150   15.0277   10.4864 H   0  0  0  0  0  0  0  0  0  0  0  0
   30.9961   17.5679   10.7555 H   0  0  0  0  0  0  0  0  0  0  0  0
   27.2854   22.6752    6.2140 H   0  0  0  0  0  0  0  0  0  0  0  0
   28.7980   23.4639    6.7842 H   0  0  0  0  0  0  0  0  0  0  0  0
   34.6003   13.2625    9.4853 H   0  0  0  0  0  0  0  0  0  0  0  0
   34.4179   14.9853    9.9641 H   0  0  0  0  0  0  0  0  0  0  0  0
   32.8926   18.1833    9.3225 H   0  0  0  0  0  0  0  0  0  0  0  0
   32.4833   16.4305    9.2065 H   0  0  0  0  0  0  0  0  0  0  0  0
   29.4260   21.4874    5.3635 H   0  0  0  0  0  0  0  0  0  0  0  0
   29.8148   19.5312    6.6184 H   0  0  0  0  0  0  0  0  0  0  0  0
   35.2038   12.0171   18.4583 H   0  0  0  0  0  0  0  0  0  0  0  0
   36.1355   13.1795   19.4654 H   0  0  0  0  0  0  0  0  0  0  0  0
   25.4556   23.5639   10.3477 H   0  0  0  0  0  0  0  0  0  0  0  0
   27.0400   23.2841   11.1078 H   0  0  0  0  0  0  0  0  0  0  0  0
   35.3754   10.9517   13.7005 H   0  0  0  0  0  0  0  0  0  0  0  0
  4  6  1  0
  1  7  1  1
  2  8  1  6
  9  5  2  0
 10  3  1  0
 11  4  1  0
 12  6  1  0
 13  1  2  0
 10 14  1  0
 11 15  1  0
 16  2  2  0
 17 10  1  0
 18 11  1  0
 19 12  2  0
 20  9  1  0
 21  1  1  0
 21  2  1  0
 17 22  1  0
 18 23  1  0
 24 20  2  0
 25 17  1  0
 26 18  1  0
 27 19  1  0
 28 25  1  0
 28  3  1  0
 29 26  1  0
 29  4  1  0
 30 24  1  0
 25 31  1  0
 26 32  1  0
 33 27  1  0
 34 31  1  0
 34  1  1  0
 35 32  1  0
 35  2  1  0
 36 30  2  0
 36  5  1  0
 37 33  2  0
 37  6  1  0
 38 36  1  0
 39 19  1  0
 40 30  1  0
 41 39  1  0
 42 39  2  0
 43 40  2  0
 44 43  1  0
 44 24  1  0
  3 44  1  0
  3 45  1  1
  4 46  1  1
  7 47  1  0
  8 48  1  0
  9 49  1  0
 10 50  1  6
 11 51  1  6
 12 52  1  0
 14 53  1  0
 15 54  1  0
 17 55  1  6
 18 56  1  6
 22 57  1  0
 23 58  1  0
 25 59  1  1
 26 60  1  1
 27 61  1  0
 27 62  1  0
 31 63  1  0
 31 64  1  0
 32 65  1  0
 32 66  1  0
 33 67  1  0
 37 68  1  0
 38 69  1  0
 38 70  1  0
 41 71  1  0
 41 72  1  0
 43 73  1  0
M  END
