
     RDKit          3D

 19 18  0  0  0  0  0  0  0  0999 V2000
   24.4949    4.4582    5.6074 C   0  0  0  0  0  0  0  0  0  0  0  0
   25.1531    3.8785    4.3580 C   0  0  0  0  0  0  0  0  0  0  0  0
   27.4627    6.7106    1.7992 C   0  0  0  0  0  0  0  0  0  0  0  0
   26.2823    4.7878    3.8663 C   0  0  0  0  0  0  0  0  0  0  0  0
   28.2558    5.4356    2.0862 C   0  0  0  0  0  0  0  0  0  0  0  0
   28.3157    7.7058    1.2988 O   0  0  0  0  0  0  0  0  0  0  0  0
   27.1404    4.0284    2.4420 S   0  0  0  0  0  0  0  0  0  0  0  0
   24.3109    3.6452    6.3409 H   0  0  0  0  0  0  0  0  0  0  0  0
   23.5226    4.9285    5.3472 H   0  0  0  0  0  0  0  0  0  0  0  0
   25.1561    5.2168    6.0783 H   0  0  0  0  0  0  0  0  0  0  0  0
   25.5616    2.8755    4.6094 H   0  0  0  0  0  0  0  0  0  0  0  0
   24.3933    3.7594    3.5555 H   0  0  0  0  0  0  0  0  0  0  0  0
   26.9502    7.0692    2.7196 H   0  0  0  0  0  0  0  0  0  0  0  0
   26.6857    6.4949    1.0355 H   0  0  0  0  0  0  0  0  0  0  0  0
   25.8610    5.7738    3.5780 H   0  0  0  0  0  0  0  0  0  0  0  0
   27.0270    4.9386    4.6776 H   0  0  0  0  0  0  0  0  0  0  0  0
   28.9581    5.6013    2.9310 H   0  0  0  0  0  0  0  0  0  0  0  0
   28.8572    5.1764    1.1892 H   0  0  0  0  0  0  0  0  0  0  0  0
   27.7671    8.5279    1.2035 H   0  0  0  0  0  0  0  0  0  0  0  0
  2  1  1  0
  4  2  1  0
  5  3  1  0
  6  3  1  0
  7  4  1  0
  7  5  1  0
  1  8  1  0
  1  9  1  0
  1 10  1  0
  2 11  1  0
  2 12  1  0
  3 13  1  0
  3 14  1  0
  4 15  1  0
  4 16  1  0
  5 17  1  0
  5 18  1  0
  6 19  1  0
M  END
