
     RDKit          3D

 37 38  0  0  0  0  0  0  0  0999 V2000
   -7.3318   -5.1670   19.1172 C   0  0  0  0  0  0  0  0  0  0  0  0
   -8.9254   -8.1153   17.7600 N   0  0  0  0  0  0  0  0  0  0  0  0
   -8.6357   -7.6632   20.0166 O   0  0  0  0  0  0  0  0  0  0  0  0
   -8.5931   -5.7546   18.5628 C   0  0  0  0  0  0  0  0  0  0  0  0
   -9.0661   -9.4988   17.9335 N   0  0  0  0  0  0  0  0  0  0  0  0
   -6.2896   -2.4309   21.3663 O   0  0  0  0  0  0  0  0  0  0  0  0
   -8.7094   -7.2252   18.8407 C   0  0  0  0  0  0  0  0  0  0  0  0
   -9.4582  -15.8793   16.7270 O   0  0  0  0  0  0  0  0  0  0  0  0
   -9.2595  -10.2177   16.8774 C   0  0  0  0  0  0  0  0  0  0  0  0
   -9.3661  -11.6805   16.9105 C   0  0  0  0  0  0  0  0  0  0  0  0
   -6.0737   -5.6453   18.7210 C   0  0  0  0  0  0  0  0  0  0  0  0
   -4.9068   -5.0896   19.2421 C   0  0  0  0  0  0  0  0  0  0  0  0
   -4.9897   -4.0347   20.1442 C   0  0  0  0  0  0  0  0  0  0  0  0
   -6.2379   -3.5185   20.5023 C   0  0  0  0  0  0  0  0  0  0  0  0
   -7.5052   -1.7833   21.7293 C   0  0  0  0  0  0  0  0  0  0  0  0
   -7.4102   -4.0864   19.9891 C   0  0  0  0  0  0  0  0  0  0  0  0
   -9.9778  -12.4054   17.9481 C   0  0  0  0  0  0  0  0  0  0  0  0
  -10.0080  -13.8101   17.8914 C   0  0  0  0  0  0  0  0  0  0  0  0
   -9.4383  -14.4897   16.8040 C   0  0  0  0  0  0  0  0  0  0  0  0
   -8.8407  -13.7628   15.7792 C   0  0  0  0  0  0  0  0  0  0  0  0
   -8.8072  -12.3731   15.8320 C   0  0  0  0  0  0  0  0  0  0  0  0
   -8.9471   -7.7066   16.7964 H   0  0  0  0  0  0  0  0  0  0  0  0
   -8.6208   -5.5603   17.4695 H   0  0  0  0  0  0  0  0  0  0  0  0
   -9.4890   -5.2571   18.9946 H   0  0  0  0  0  0  0  0  0  0  0  0
   -9.6604  -16.4500   17.5395 H   0  0  0  0  0  0  0  0  0  0  0  0
   -9.3037   -9.7349   15.9057 H   0  0  0  0  0  0  0  0  0  0  0  0
   -5.9952   -6.4604   18.0125 H   0  0  0  0  0  0  0  0  0  0  0  0
   -3.9404   -5.4756   18.9443 H   0  0  0  0  0  0  0  0  0  0  0  0
   -4.0844   -3.5981   20.5466 H   0  0  0  0  0  0  0  0  0  0  0  0
   -8.0178   -1.3886   20.8262 H   0  0  0  0  0  0  0  0  0  0  0  0
   -7.2714   -0.9299   22.3982 H   0  0  0  0  0  0  0  0  0  0  0  0
   -8.1672   -2.4850   22.2799 H   0  0  0  0  0  0  0  0  0  0  0  0
   -8.3834   -3.7020   20.2616 H   0  0  0  0  0  0  0  0  0  0  0  0
  -10.4203  -11.8935   18.7933 H   0  0  0  0  0  0  0  0  0  0  0  0
  -10.4761  -14.3660   18.6937 H   0  0  0  0  0  0  0  0  0  0  0  0
   -8.3986  -14.2786   14.9360 H   0  0  0  0  0  0  0  0  0  0  0  0
   -8.3296  -11.8397   15.0182 H   0  0  0  0  0  0  0  0  0  0  0  0
  4  1  1  0
  5  2  1  0
  7  4  1  0
  7  3  2  0
  7  2  1  0
  9  5  2  3
 10  9  1  0
 11  1  2  0
 12 11  1  0
 13 12  2  0
 14  6  1  0
 14 13  1  0
 15  6  1  0
 16 14  2  0
 16  1  1  0
 17 10  2  0
 18 17  1  0
 19 18  2  0
 19  8  1  0
 20 19  1  0
 21 20  2  0
 21 10  1  0
  2 22  1  0
  4 23  1  0
  4 24  1  0
  8 25  1  0
  9 26  1  0
 11 27  1  0
 12 28  1  0
 13 29  1  0
 15 30  1  0
 15 31  1  0
 15 32  1  0
 16 33  1  0
 17 34  1  0
 18 35  1  0
 20 36  1  0
 21 37  1  0
M  END
