
     RDKit          3D

 43 46  0  0  0  0  0  0  0  0999 V2000
   51.6327   44.3379   -5.5515 C   0  0  0  0  0  0  0  0  0  0  0  0
   51.3200   42.7045   -2.1432 N   0  0  0  0  0  0  0  0  0  0  0  0
   50.4351   41.6452   -6.9125 O   0  0  0  0  0  0  0  0  0  0  0  0
   51.2011   43.4174   -4.4298 C   0  0  0  0  0  0  0  0  0  0  0  0
   48.4396   42.6208   -6.3523 O   0  0  0  0  0  0  0  0  0  0  0  0
   51.7406   43.5361   -3.1250 C   0  0  0  0  0  0  0  0  0  0  0  0
   50.2310   42.4182   -4.6717 C   0  0  0  0  0  0  0  0  0  0  0  0
   49.7262   42.2113   -6.0413 C   0  0  0  0  0  0  0  0  0  0  0  0
   49.7914   41.5996   -3.6096 C   0  0  0  0  0  0  0  0  0  0  0  0
   50.3762   41.7633   -2.3380 C   0  0  0  0  0  0  0  0  0  0  0  0
   53.8465   44.7652   -3.5919 C   0  0  0  0  0  0  0  0  0  0  0  0
   52.5684   45.3473   -1.6192 C   0  0  0  0  0  0  0  0  0  0  0  0
   48.7746   40.6421   -3.7619 C   0  0  0  0  0  0  0  0  0  0  0  0
   49.9631   40.9861   -1.2554 C   0  0  0  0  0  0  0  0  0  0  0  0
   54.7543   45.7876   -3.3116 C   0  0  0  0  0  0  0  0  0  0  0  0
   53.4903   46.3491   -1.3248 C   0  0  0  0  0  0  0  0  0  0  0  0
   48.3485   39.8938   -2.6649 C   0  0  0  0  0  0  0  0  0  0  0  0
   48.9459   40.0531   -1.4175 C   0  0  0  0  0  0  0  0  0  0  0  0
   54.5857   46.5865   -2.1689 C   0  0  0  0  0  0  0  0  0  0  0  0
   55.4753   47.7465   -1.9161 C   0  0  0  0  0  0  0  0  0  0  0  0
   56.8598   47.6187   -2.1210 C   0  0  0  0  0  0  0  0  0  0  0  0
   54.9500   49.0040   -1.5695 C   0  0  0  0  0  0  0  0  0  0  0  0
   57.7045   48.7218   -1.9737 C   0  0  0  0  0  0  0  0  0  0  0  0
   57.1761   49.9636   -1.6198 C   0  0  0  0  0  0  0  0  0  0  0  0
   55.8021   50.1028   -1.4110 C   0  0  0  0  0  0  0  0  0  0  0  0
   52.7521   44.5336   -2.7430 C   0  0  0  0  0  0  0  0  0  0  0  0
   47.3300   39.0294   -2.8057 F   0  0  0  0  0  0  0  0  0  0  0  0
   52.4782   43.8827   -6.1077 H   0  0  0  0  0  0  0  0  0  0  0  0
   50.8003   44.5294   -6.2599 H   0  0  0  0  0  0  0  0  0  0  0  0
   51.9260   45.3373   -5.1710 H   0  0  0  0  0  0  0  0  0  0  0  0
   48.0940   42.5711   -7.3032 H   0  0  0  0  0  0  0  0  0  0  0  0
   53.9899   44.1636   -4.4814 H   0  0  0  0  0  0  0  0  0  0  0  0
   51.6933   45.2420   -0.9918 H   0  0  0  0  0  0  0  0  0  0  0  0
   48.2852   40.4829   -4.7137 H   0  0  0  0  0  0  0  0  0  0  0  0
   50.4159   41.1196   -0.2804 H   0  0  0  0  0  0  0  0  0  0  0  0
   55.5828   45.9626   -3.9868 H   0  0  0  0  0  0  0  0  0  0  0  0
   53.3193   46.9814   -0.4621 H   0  0  0  0  0  0  0  0  0  0  0  0
   48.6098   39.4652   -0.5730 H   0  0  0  0  0  0  0  0  0  0  0  0
   57.2852   46.6673   -2.4162 H   0  0  0  0  0  0  0  0  0  0  0  0
   53.8848   49.1310   -1.4202 H   0  0  0  0  0  0  0  0  0  0  0  0
   58.7688   48.6142   -2.1388 H   0  0  0  0  0  0  0  0  0  0  0  0
   57.8306   50.8180   -1.5054 H   0  0  0  0  0  0  0  0  0  0  0  0
   55.3933   51.0671   -1.1380 H   0  0  0  0  0  0  0  0  0  0  0  0
  4  1  1  0
  6  4  1  0
  6  2  2  0
  7  4  2  0
  8  3  2  0
  8  7  1  0
  8  5  1  0
  9  7  1  0
 10  9  2  0
 10  2  1  0
 13  9  1  0
 14 10  1  0
 15 11  2  0
 16 12  1  0
 17 13  2  0
 18 17  1  0
 18 14  2  0
 19 16  2  0
 19 15  1  0
 20 19  1  0
 21 20  2  0
 22 20  1  0
 23 21  1  0
 24 23  2  0
 25 24  1  0
 25 22  2  0
 26  6  1  0
 26 12  2  0
 26 11  1  0
 27 17  1  0
  1 28  1  0
  1 29  1  0
  1 30  1  0
  5 31  1  0
 11 32  1  0
 12 33  1  0
 13 34  1  0
 14 35  1  0
 15 36  1  0
 16 37  1  0
 18 38  1  0
 21 39  1  0
 22 40  1  0
 23 41  1  0
 24 42  1  0
 25 43  1  0
M  END
