
     RDKit          3D

 44 46  0  0  0  0  0  0  0  0999 V2000
   28.9087   12.1684   22.2499 Cl  0  0  0  0  0  0  0  0  0  0  0  0
   31.0103    8.7035   27.6923 N   0  0  0  0  0  0  0  0  0  0  0  0
   31.9576    7.8638   27.2266 C   0  0  0  0  0  0  0  0  0  0  0  0
   32.3578    8.2797   25.9697 C   0  0  0  0  0  0  0  0  0  0  0  0
   30.8167    9.6107   26.7770 O   0  0  0  0  0  0  0  0  0  0  0  0
   31.5953    9.4078   25.7376 C   0  0  0  0  0  0  0  0  0  0  0  0
   31.6301   10.2684   24.5530 C   0  0  0  0  0  0  0  0  0  0  0  0
   33.3677    7.6770   25.0856 C   0  0  0  0  0  0  0  0  0  0  0  0
   32.4747    6.7297   28.0041 C   0  0  0  0  0  0  0  0  0  0  0  0
   33.5898    6.2111   27.7262 O   0  0  0  0  0  0  0  0  0  0  0  0
   31.6945    6.2311   29.0910 N   0  0  0  0  0  0  0  0  0  0  0  0
   30.4272   10.7579   24.0225 C   0  0  0  0  0  0  0  0  0  0  0  0
   30.4350   11.5833   22.8963 C   0  0  0  0  0  0  0  0  0  0  0  0
   31.6565   11.9307   22.2987 C   0  0  0  0  0  0  0  0  0  0  0  0
   32.8544   11.4372   22.8195 C   0  0  0  0  0  0  0  0  0  0  0  0
   32.8512   10.6035   23.9384 C   0  0  0  0  0  0  0  0  0  0  0  0
   33.2486    7.8043   23.6967 C   0  0  0  0  0  0  0  0  0  0  0  0
   34.1958    7.2184   22.8526 C   0  0  0  0  0  0  0  0  0  0  0  0
   35.2770    6.5053   23.3827 C   0  0  0  0  0  0  0  0  0  0  0  0
   35.3975    6.3759   24.7809 C   0  0  0  0  0  0  0  0  0  0  0  0
   34.4411    6.9521   25.6239 C   0  0  0  0  0  0  0  0  0  0  0  0
   36.2063    5.9488   22.4957 O   0  0  0  0  0  0  0  0  0  0  0  0
   36.3267    6.3446   21.1330 C   0  0  0  0  0  0  0  0  0  0  0  0
   34.0753   10.1550   24.4326 O   0  0  0  0  0  0  0  0  0  0  0  0
   31.7089   12.7721   21.1938 O   0  0  0  0  0  0  0  0  0  0  0  0
   32.1379    5.1347   29.9424 C   0  0  0  0  0  0  0  0  0  0  0  0
   33.0894    5.6525   31.0128 C   0  0  0  0  0  0  0  0  0  0  0  0
   30.7828    6.6873   29.3216 H   0  0  0  0  0  0  0  0  0  0  0  0
   29.4813   10.4904   24.4779 H   0  0  0  0  0  0  0  0  0  0  0  0
   33.7942   11.7085   22.3545 H   0  0  0  0  0  0  0  0  0  0  0  0
   32.4197    8.3537   23.2671 H   0  0  0  0  0  0  0  0  0  0  0  0
   34.0922    7.3237   21.7801 H   0  0  0  0  0  0  0  0  0  0  0  0
   36.2173    5.8300   25.2268 H   0  0  0  0  0  0  0  0  0  0  0  0
   34.5393    6.8395   26.6968 H   0  0  0  0  0  0  0  0  0  0  0  0
   36.5992    7.4193   21.0688 H   0  0  0  0  0  0  0  0  0  0  0  0
   37.1287    5.7477   20.6527 H   0  0  0  0  0  0  0  0  0  0  0  0
   35.3742    6.1563   20.5937 H   0  0  0  0  0  0  0  0  0  0  0  0
   34.1710    9.6225   25.2869 H   0  0  0  0  0  0  0  0  0  0  0  0
   31.4612   13.7524   21.2337 H   0  0  0  0  0  0  0  0  0  0  0  0
   31.2544    4.6774   30.4377 H   0  0  0  0  0  0  0  0  0  0  0  0
   32.6338    4.3445   29.3381 H   0  0  0  0  0  0  0  0  0  0  0  0
   32.5259    6.2247   31.7801 H   0  0  0  0  0  0  0  0  0  0  0  0
   33.6127    4.8033   31.5016 H   0  0  0  0  0  0  0  0  0  0  0  0
   33.8447    6.3217   30.5495 H   0  0  0  0  0  0  0  0  0  0  0  0
  3  2  2  0
  4  3  1  0
  5  2  1  0
  6  5  1  0
  6  4  2  0
  7  6  1  0
  8  4  1  0
  9  3  1  0
 10  9  2  0
 11  9  1  0
 12  7  2  0
 13 12  1  0
 13  1  1  0
 14 13  2  0
 15 14  1  0
 16  7  1  0
 16 15  2  0
 17  8  2  0
 18 17  1  0
 19 18  2  0
 20 19  1  0
 21  8  1  0
 21 20  2  0
 22 19  1  0
 23 22  1  0
 24 16  1  0
 25 14  1  0
 26 11  1  0
 27 26  1  0
 11 28  1  0
 12 29  1  0
 15 30  1  0
 17 31  1  0
 18 32  1  0
 20 33  1  0
 21 34  1  0
 23 35  1  0
 23 36  1  0
 23 37  1  0
 24 38  1  0
 25 39  1  0
 26 40  1  0
 26 41  1  0
 27 42  1  0
 27 43  1  0
 27 44  1  0
M  END
