
     RDKit          3D

 37 39  0  0  0  0  0  0  0  0999 V2000
  -13.0660   42.9020    9.4826 P   0  0  0  0  0  0  0  0  0  0  0  0
  -14.0076   42.3007    8.4553 O   0  0  0  0  0  0  0  0  0  0  0  0
  -13.5012   44.4956    9.8189 O   0  0  0  0  0  0  0  0  0  0  0  0
  -11.4970   42.8609    8.8876 O   0  0  0  0  0  0  0  0  0  0  0  0
  -13.2843   44.7649   12.3800 C   0  0  0  0  0  0  0  0  0  0  0  0
  -13.5009   44.4969   13.7402 O   0  0  0  0  0  0  0  0  0  0  0  0
  -12.1442   43.9133   11.7775 C   0  0  1  0  0  0  0  0  0  0  0  0
  -10.8808   44.2559   12.3062 O   0  0  0  0  0  0  0  0  0  0  0  0
  -12.3468   42.4055   11.9307 C   0  0  1  0  0  0  0  0  0  0  0  0
  -13.2219   41.9878   10.9030 O   0  0  0  0  0  0  0  0  0  0  0  0
  -10.9082   41.8988   11.8143 C   0  0  1  0  0  0  0  0  0  0  0  0
  -10.5556   41.5433   10.4956 O   0  0  0  0  0  0  0  0  0  0  0  0
  -10.0671   43.0926   12.2904 C   0  0  2  0  0  0  0  0  0  0  0  0
   -5.9739   41.5036   15.1251 N   0  0  0  0  0  0  0  0  0  0  0  0
   -6.1740   41.3564   13.7750 C   0  0  0  0  0  0  0  0  0  0  0  0
   -7.3397   41.7954   13.1907 N   0  0  0  0  0  0  0  0  0  0  0  0
   -8.2945   42.3623   13.9846 C   0  0  0  0  0  0  0  0  0  0  0  0
   -8.1171   42.5108   15.3206 C   0  0  0  0  0  0  0  0  0  0  0  0
   -6.9265   42.0824   15.9231 C   0  0  0  0  0  0  0  0  0  0  0  0
   -6.6939   42.2491   17.3240 N   0  0  0  0  0  0  0  0  0  0  0  0
   -9.1980   43.1092   15.8711 N   0  0  0  0  0  0  0  0  0  0  0  0
  -10.0284   43.3109   14.8085 C   0  0  0  0  0  0  0  0  0  0  0  0
   -9.5024   42.8732   13.6322 N   0  0  0  0  0  0  0  0  0  0  0  0
  -12.6475   44.9963    9.8521 H   0  0  0  0  0  0  0  0  0  0  0  0
  -11.0733   42.0894    9.3419 H   0  0  0  0  0  0  0  0  0  0  0  0
  -14.2231   44.5423   11.8296 H   0  0  0  0  0  0  0  0  0  0  0  0
  -13.0646   45.8462   12.2222 H   0  0  0  0  0  0  0  0  0  0  0  0
  -12.8812   45.0834   14.2464 H   0  0  0  0  0  0  0  0  0  0  0  0
  -12.1142   44.1602   10.6907 H   0  0  0  0  0  0  0  0  0  0  0  0
  -12.7565   42.1733   12.9401 H   0  0  0  0  0  0  0  0  0  0  0  0
  -10.7594   41.0147   12.4720 H   0  0  0  0  0  0  0  0  0  0  0  0
   -9.5829   41.7046   10.3789 H   0  0  0  0  0  0  0  0  0  0  0  0
   -9.2254   43.2717   11.5847 H   0  0  0  0  0  0  0  0  0  0  0  0
   -5.4067   40.8999   13.1651 H   0  0  0  0  0  0  0  0  0  0  0  0
   -5.7755   42.6111   17.6638 H   0  0  0  0  0  0  0  0  0  0  0  0
   -7.4327   42.0128   18.0231 H   0  0  0  0  0  0  0  0  0  0  0  0
  -10.9894   43.7957   14.8982 H   0  0  0  0  0  0  0  0  0  0  0  0
  2  1  2  0
  3  1  1  0
  4  1  1  0
  6  5  1  0
  7  5  1  0
  8  7  1  0
  9  7  1  0
  9 10  1  0
 10  1  1  0
 11  9  1  0
 11 12  1  0
 13 11  1  0
 13  8  1  0
 15 14  2  0
 16 15  1  0
 17 16  2  0
 18 17  1  0
 19 18  2  0
 19 14  1  0
 20 19  1  0
 21 18  1  0
 22 21  2  0
 23 22  1  0
 23 17  1  0
 13 23  1  0
  3 24  1  0
  4 25  1  0
  5 26  1  0
  5 27  1  0
  6 28  1  0
  7 29  1  6
  9 30  1  1
 11 31  1  1
 12 32  1  0
 13 33  1  6
 15 34  1  0
 20 35  1  0
 20 36  1  0
 22 37  1  0
M  END
