
     RDKit          3D

 60 62  0  0  0  0  0  0  0  0999 V2000
   -8.9042   -7.0903  -41.4897 P   0  0  2  0  0  0  0  0  0  0  0  0
   -8.6677   -4.7719  -39.8698 P   0  0  1  0  0  0  0  0  0  0  0  0
   -9.3398    0.1527  -40.2515 C   0  0  0  0  0  0  0  0  0  0  0  0
  -10.0533    1.0770  -41.0344 O   0  0  0  0  0  0  0  0  0  0  0  0
   -8.8126   -1.0367  -41.0854 C   0  0  1  0  0  0  0  0  0  0  0  0
   -9.8243   -2.0350  -41.1476 O   0  0  0  0  0  0  0  0  0  0  0  0
   -8.3531   -0.6034  -42.5030 C   0  0  1  0  0  0  0  0  0  0  0  0
   -7.3242    0.3509  -42.4012 O   0  0  0  0  0  0  0  0  0  0  0  0
   -7.8726   -1.8402  -43.2865 C   0  0  2  0  0  0  0  0  0  0  0  0
   -7.5260   -1.5092  -44.6091 O   0  0  0  0  0  0  0  0  0  0  0  0
   -8.9844   -2.9054  -43.2689 C   0  0  1  0  0  0  0  0  0  0  0  0
   -8.5255   -4.0768  -43.8932 O   0  0  0  0  0  0  0  0  0  0  0  0
   -9.3816   -3.2122  -41.8150 C   0  0  1  0  0  0  0  0  0  0  0  0
  -12.0776  -10.8746  -40.8581 C   0  0  1  0  0  0  0  0  0  0  0  0
  -11.4473  -11.7388  -41.8820 N   0  0  0  0  0  0  0  0  0  0  0  0
   -7.8164   -7.9340  -42.1160 O   0  0  0  0  0  0  0  0  0  0  0  0
  -10.1109   -4.6399  -39.4413 O   0  0  0  0  0  0  0  0  0  0  0  0
  -12.0542  -12.9014  -42.2983 C   0  0  0  0  0  0  0  0  0  0  0  0
  -11.1511  -10.5699  -39.6817 C   0  0  2  0  0  0  0  0  0  0  0  0
  -13.1406  -13.2823  -41.7822 O   0  0  0  0  0  0  0  0  0  0  0  0
   -9.5253   -6.0595  -42.6541 O   0  0  0  0  0  0  0  0  0  0  0  0
   -7.6759   -4.3114  -38.5920 O   0  0  0  0  0  0  0  0  0  0  0  0
  -11.0364  -11.6124  -38.7459 O   0  0  0  0  0  0  0  0  0  0  0  0
  -11.8147   -9.3286  -39.1201 C   0  0  2  0  0  0  0  0  0  0  0  0
  -11.4900  -13.6581  -43.2827 N   0  0  0  0  0  0  0  0  0  0  0  0
   -8.2023   -6.3766  -40.1228 O   0  0  0  0  0  0  0  0  0  0  0  0
   -8.2548   -3.7874  -41.1839 O   0  0  0  0  0  0  0  0  0  0  0  0
  -12.8972   -9.6776  -38.2870 O   0  0  0  0  0  0  0  0  0  0  0  0
  -10.3299  -13.2836  -43.8842 C   0  0  0  0  0  0  0  0  0  0  0  0
  -12.3396   -8.6501  -40.4066 C   0  0  2  0  0  0  0  0  0  0  0  0
   -9.8362  -13.9909  -44.8023 O   0  0  0  0  0  0  0  0  0  0  0  0
  -12.4477   -9.6345  -41.4257 O   0  0  0  0  0  0  0  0  0  0  0  0
   -9.6939  -12.1137  -43.4867 C   0  0  0  0  0  0  0  0  0  0  0  0
  -11.3729   -7.5558  -40.8891 C   0  0  0  0  0  0  0  0  0  0  0  0
  -10.1119   -8.1639  -41.0116 O   0  0  0  0  0  0  0  0  0  0  0  0
  -10.2750  -11.3486  -42.4768 C   0  0  0  0  0  0  0  0  0  0  0  0
  -10.0050   -0.2225  -39.4446 H   0  0  0  0  0  0  0  0  0  0  0  0
   -8.4826    0.6561  -39.7448 H   0  0  0  0  0  0  0  0  0  0  0  0
  -10.5431    0.5603  -41.7264 H   0  0  0  0  0  0  0  0  0  0  0  0
   -7.9331   -1.4371  -40.5297 H   0  0  0  0  0  0  0  0  0  0  0  0
   -9.2263   -0.1627  -43.0405 H   0  0  0  0  0  0  0  0  0  0  0  0
   -7.2849    0.8252  -43.2724 H   0  0  0  0  0  0  0  0  0  0  0  0
   -6.9622   -2.2471  -42.7928 H   0  0  0  0  0  0  0  0  0  0  0  0
   -8.3327   -1.1312  -45.0481 H   0  0  0  0  0  0  0  0  0  0  0  0
   -9.8883   -2.5201  -43.7990 H   0  0  0  0  0  0  0  0  0  0  0  0
   -8.6240   -4.8131  -43.2347 H   0  0  0  0  0  0  0  0  0  0  0  0
  -10.2434   -3.9121  -41.8567 H   0  0  0  0  0  0  0  0  0  0  0  0
  -13.0143  -11.3374  -40.4726 H   0  0  0  0  0  0  0  0  0  0  0  0
  -10.1279  -10.3340  -40.0368 H   0  0  0  0  0  0  0  0  0  0  0  0
   -9.9363   -6.6566  -43.3291 H   0  0  0  0  0  0  0  0  0  0  0  0
   -7.8591   -3.3461  -38.4654 H   0  0  0  0  0  0  0  0  0  0  0  0
  -11.9379  -11.9923  -38.5802 H   0  0  0  0  0  0  0  0  0  0  0  0
  -11.0841   -8.6905  -38.5675 H   0  0  0  0  0  0  0  0  0  0  0  0
  -11.9635  -14.5393  -43.5881 H   0  0  0  0  0  0  0  0  0  0  0  0
  -12.7098  -10.5890  -37.9410 H   0  0  0  0  0  0  0  0  0  0  0  0
  -13.3378   -8.1924  -40.2297 H   0  0  0  0  0  0  0  0  0  0  0  0
   -8.7710  -11.7938  -43.9547 H   0  0  0  0  0  0  0  0  0  0  0  0
  -11.3475   -6.7562  -40.1212 H   0  0  0  0  0  0  0  0  0  0  0  0
  -11.7183   -7.1482  -41.8650 H   0  0  0  0  0  0  0  0  0  0  0  0
   -9.7879  -10.4282  -42.1868 H   0  0  0  0  0  0  0  0  0  0  0  0
  4  3  1  0
  5  3  1  0
  6  5  1  0
  7  5  1  0
  7  8  1  0
  9  7  1  0
  9 10  1  0
 11  9  1  0
 11 12  1  0
 13 11  1  0
 13  6  1  0
 14 15  1  0
 16  1  2  0
 17  2  2  0
 18 15  1  0
 19 14  1  0
 20 18  2  0
  1 21  1  6
  2 22  1  1
 19 23  1  0
 24 19  1  0
 25 18  1  0
 26  1  1  0
 26  2  1  0
 13 27  1  0
 27  2  1  0
 24 28  1  0
 29 25  1  0
 30 24  1  0
 31 29  2  0
 32 30  1  0
 32 14  1  0
 33 29  1  0
 30 34  1  0
 35 34  1  0
 35  1  1  0
 36 33  2  0
 36 15  1  0
  3 37  1  0
  3 38  1  0
  4 39  1  0
  5 40  1  1
  7 41  1  6
  8 42  1  0
  9 43  1  1
 10 44  1  0
 11 45  1  6
 12 46  1  0
 13 47  1  6
 14 48  1  1
 19 49  1  6
 21 50  1  0
 22 51  1  0
 23 52  1  0
 24 53  1  1
 25 54  1  0
 28 55  1  0
 30 56  1  1
 33 57  1  0
 34 58  1  0
 34 59  1  0
 36 60  1  0
M  END
