
     RDKit          3D

 73 77  0  0  0  0  0  0  0  0999 V2000
  -26.4443   30.1745   10.9548 P   0  0  1  0  0  0  0  0  0  0  0  0
  -25.7170   31.7603   13.1444 P   0  0  2  0  0  0  0  0  0  0  0  0
  -22.8572   30.3142    6.3554 C   0  0  1  0  0  0  0  0  0  0  0  0
  -22.3111   32.9489   16.6205 C   0  0  1  0  0  0  0  0  0  0  0  0
  -18.7296   31.3331    3.5268 N   0  0  0  0  0  0  0  0  0  0  0  0
  -23.3588   33.6528   17.3835 N   0  0  0  0  0  0  0  0  0  0  0  0
  -26.3596   28.5425   10.5801 O   0  0  0  0  0  0  0  0  0  0  0  0
  -27.0296   31.5248   14.1557 O   0  0  0  0  0  0  0  0  0  0  0  0
  -20.0051   31.8196    3.4085 C   0  0  0  0  0  0  0  0  0  0  0  0
  -23.7965   29.1230    6.4338 C   0  0  2  0  0  0  0  0  0  0  0  0
  -22.4705   31.4210   16.5528 C   0  0  2  0  0  0  0  0  0  0  0  0
  -24.7552   33.4192   17.1347 C   0  0  0  0  0  0  0  0  0  0  0  0
  -27.8848   30.5460   11.2216 O   0  0  0  0  0  0  0  0  0  0  0  0
  -24.1484   28.5942    5.1766 O   0  0  0  0  0  0  0  0  0  0  0  0
  -21.8979   30.7410   17.6462 O   0  0  0  0  0  0  0  0  0  0  0  0
  -25.9135   32.9873   12.2857 O   0  0  0  0  0  0  0  0  0  0  0  0
  -24.9731   29.7285    7.1735 C   0  0  2  0  0  0  0  0  0  0  0  0
  -21.8156   31.0977   15.2174 C   0  0  2  0  0  0  0  0  0  0  0  0
  -25.7059   34.1535   17.7401 C   0  0  0  0  0  0  0  0  0  0  0  0
  -20.9862   31.3956    4.2589 N   0  0  0  0  0  0  0  0  0  0  0  0
  -25.4096   30.3555   12.2715 O   0  0  0  0  0  0  0  0  0  0  0  0
  -26.0071   30.1187    6.2991 O   0  0  0  0  0  0  0  0  0  0  0  0
  -20.4299   30.8927   15.3451 O   0  0  0  0  0  0  0  0  0  0  0  0
  -20.6594   30.4844    5.2105 C   0  0  0  0  0  0  0  0  0  0  0  0
  -24.3485   30.9480    7.8917 C   0  0  2  0  0  0  0  0  0  0  0  0
  -22.0495   32.3802   14.4083 C   0  0  2  0  0  0  0  0  0  0  0  0
  -25.3517   35.3553   18.5668 C   0  0  0  0  0  0  0  0  0  0  0  0
  -22.9824   31.0095    7.5633 O   0  0  0  0  0  0  0  0  0  0  0  0
  -22.2981   33.4496   15.3021 O   0  0  0  0  0  0  0  0  0  0  0  0
  -19.4123   29.9942    5.3555 C   0  0  0  0  0  0  0  0  0  0  0  0
  -24.5165   30.8634    9.4068 C   0  0  0  0  0  0  0  0  0  0  0  0
  -23.2233   32.2425   13.4201 C   0  0  0  0  0  0  0  0  0  0  0  0
  -23.8908   35.5726   18.7471 C   0  0  0  0  0  0  0  0  0  0  0  0
  -25.8767   31.1096    9.6692 O   0  0  0  0  0  0  0  0  0  0  0  0
  -24.3777   31.9309   14.1552 O   0  0  0  0  0  0  0  0  0  0  0  0
  -18.4063   30.4184    4.4908 C   0  0  0  0  0  0  0  0  0  0  0  0
  -22.9781   34.7765   18.1922 C   0  0  0  0  0  0  0  0  0  0  0  0
  -17.0776   29.9284    4.5954 N   0  0  0  0  0  0  0  0  0  0  0  0
  -27.1377   33.7846   17.6843 C   0  0  0  0  0  0  0  0  0  0  0  0
  -19.3637   29.1330    6.3958 N   0  0  0  0  0  0  0  0  0  0  0  0
  -27.5700   32.4392   17.8393 N   0  0  0  0  0  0  0  0  0  0  0  0
  -28.0063   34.6912   17.5314 O   0  0  0  0  0  0  0  0  0  0  0  0
  -20.6464   29.1363    6.8593 C   0  0  0  0  0  0  0  0  0  0  0  0
  -21.4634   29.9461    6.1331 N   0  0  0  0  0  0  0  0  0  0  0  0
  -23.1876   30.9972    5.5367 H   0  0  0  0  0  0  0  0  0  0  0  0
  -21.3146   33.1756   17.0631 H   0  0  0  0  0  0  0  0  0  0  0  0
  -27.0196   28.4136    9.8531 H   0  0  0  0  0  0  0  0  0  0  0  0
  -26.9360   30.5924   14.4766 H   0  0  0  0  0  0  0  0  0  0  0  0
  -20.2357   32.5435    2.6391 H   0  0  0  0  0  0  0  0  0  0  0  0
  -23.3461   28.3182    7.0553 H   0  0  0  0  0  0  0  0  0  0  0  0
  -23.5300   31.1115   16.4912 H   0  0  0  0  0  0  0  0  0  0  0  0
  -25.0438   32.6152   16.4863 H   0  0  0  0  0  0  0  0  0  0  0  0
  -24.2998   29.3375    4.5375 H   0  0  0  0  0  0  0  0  0  0  0  0
  -21.2445   30.0791   17.3011 H   0  0  0  0  0  0  0  0  0  0  0  0
  -25.3838   28.9792    7.8847 H   0  0  0  0  0  0  0  0  0  0  0  0
  -22.2940   30.2088   14.7401 H   0  0  0  0  0  0  0  0  0  0  0  0
  -25.6643   30.8338    5.7014 H   0  0  0  0  0  0  0  0  0  0  0  0
  -19.9989   31.3826   14.5969 H   0  0  0  0  0  0  0  0  0  0  0  0
  -24.8228   31.8959    7.5469 H   0  0  0  0  0  0  0  0  0  0  0  0
  -21.1418   32.6243   13.8125 H   0  0  0  0  0  0  0  0  0  0  0  0
  -25.7842   36.2591   18.0875 H   0  0  0  0  0  0  0  0  0  0  0  0
  -25.7994   35.2521   19.5785 H   0  0  0  0  0  0  0  0  0  0  0  0
  -23.9125   31.6606    9.8917 H   0  0  0  0  0  0  0  0  0  0  0  0
  -24.1396   29.8765    9.7627 H   0  0  0  0  0  0  0  0  0  0  0  0
  -23.3477   33.2091   12.8822 H   0  0  0  0  0  0  0  0  0  0  0  0
  -22.9896   31.4386   12.6857 H   0  0  0  0  0  0  0  0  0  0  0  0
  -23.5630   36.4140   19.3449 H   0  0  0  0  0  0  0  0  0  0  0  0
  -21.9301   34.9988   18.3545 H   0  0  0  0  0  0  0  0  0  0  0  0
  -16.3965   30.0882    3.8203 H   0  0  0  0  0  0  0  0  0  0  0  0
  -16.7627   29.4040    5.4418 H   0  0  0  0  0  0  0  0  0  0  0  0
  -28.1184   31.9778   17.0852 H   0  0  0  0  0  0  0  0  0  0  0  0
  -27.0649   31.8131   18.5049 H   0  0  0  0  0  0  0  0  0  0  0  0
  -20.9694   28.5694    7.7226 H   0  0  0  0  0  0  0  0  0  0  0  0
  4  6  1  0
  1  7  1  6
  2  8  1  1
  9  5  2  0
 10  3  1  0
 11  4  1  0
 12  6  1  0
 13  1  2  0
 10 14  1  0
 11 15  1  0
 16  2  2  0
 17 10  1  0
 18 11  1  0
 19 12  2  0
 20  9  1  0
 21  2  1  0
 21  1  1  0
 17 22  1  0
 18 23  1  0
 24 20  2  0
 25 17  1  0
 26 18  1  0
 27 19  1  0
 28 25  1  0
 28  3  1  0
 29  4  1  0
 29 26  1  0
 30 24  1  0
 25 31  1  0
 26 32  1  0
 33 27  1  0
 34 31  1  0
 34  1  1  0
 35 32  1  0
 35  2  1  0
 36 30  2  0
 36  5  1  0
 37 33  2  0
 37  6  1  0
 38 36  1  0
 39 19  1  0
 40 30  1  0
 41 39  1  0
 42 39  2  0
 43 40  2  0
  3 44  1  0
 44 24  1  0
 44 43  1  0
  3 45  1  6
  4 46  1  1
  7 47  1  0
  8 48  1  0
  9 49  1  0
 10 50  1  1
 11 51  1  6
 12 52  1  0
 14 53  1  0
 15 54  1  0
 17 55  1  1
 18 56  1  6
 22 57  1  0
 23 58  1  0
 25 59  1  6
 26 60  1  6
 27 61  1  0
 27 62  1  0
 31 63  1  0
 31 64  1  0
 32 65  1  0
 32 66  1  0
 33 67  1  0
 37 68  1  0
 38 69  1  0
 38 70  1  0
 41 71  1  0
 41 72  1  0
 43 73  1  0
M  END
