
     RDKit          3D

 60 62  0  0  0  0  0  0  0  0999 V2000
  -18.6979   -7.1261  -69.3472 P   0  0  2  0  0  0  0  0  0  0  0  0
  -20.6497   -8.8635  -70.4773 P   0  0  1  0  0  0  0  0  0  0  0  0
  -22.3128  -13.7689  -69.9629 C   0  0  0  0  0  0  0  0  0  0  0  0
  -22.9174  -14.4576  -68.8984 O   0  0  0  0  0  0  0  0  0  0  0  0
  -21.2195  -12.8038  -69.4648 C   0  0  1  0  0  0  0  0  0  0  0  0
  -21.8278  -11.6202  -68.9535 O   0  0  0  0  0  0  0  0  0  0  0  0
  -20.3009  -13.4603  -68.4035 C   0  0  1  0  0  0  0  0  0  0  0  0
  -19.7192  -14.6320  -68.9194 O   0  0  0  0  0  0  0  0  0  0  0  0
  -19.2086  -12.4506  -68.0173 C   0  0  2  0  0  0  0  0  0  0  0  0
  -18.3304  -12.9796  -67.0525 O   0  0  0  0  0  0  0  0  0  0  0  0
  -19.8846  -11.1590  -67.5105 C   0  0  1  0  0  0  0  0  0  0  0  0
  -18.8993  -10.1858  -67.2611 O   0  0  0  0  0  0  0  0  0  0  0  0
  -20.8607  -10.6314  -68.5802 C   0  0  1  0  0  0  0  0  0  0  0  0
  -19.5928   -2.4324  -67.8442 C   0  0  1  0  0  0  0  0  0  0  0  0
  -18.2875   -2.2582  -67.1729 N   0  0  0  0  0  0  0  0  0  0  0  0
  -17.2496   -6.9443  -69.7390 O   0  0  0  0  0  0  0  0  0  0  0  0
  -21.9134   -8.2971  -69.8690 O   0  0  0  0  0  0  0  0  0  0  0  0
  -17.6016   -1.0668  -67.2460 C   0  0  0  0  0  0  0  0  0  0  0  0
  -19.4725   -2.6528  -69.3539 C   0  0  2  0  0  0  0  0  0  0  0  0
  -18.0335   -0.1134  -67.9520 O   0  0  0  0  0  0  0  0  0  0  0  0
  -18.7719   -8.0737  -67.9633 O   0  0  0  0  0  0  0  0  0  0  0  0
  -20.9546   -9.3642  -72.0527 O   0  0  0  0  0  0  0  0  0  0  0  0
  -19.2651   -1.4800  -70.1030 O   0  0  0  0  0  0  0  0  0  0  0  0
  -20.8040   -3.3210  -69.6420 C   0  0  2  0  0  0  0  0  0  0  0  0
  -16.4420   -0.9004  -66.5483 N   0  0  0  0  0  0  0  0  0  0  0  0
  -19.4581   -7.6980  -70.7412 O   0  0  0  0  0  0  0  0  0  0  0  0
  -20.0576  -10.2282  -69.6703 O   0  0  0  0  0  0  0  0  0  0  0  0
  -21.8309   -2.3671  -69.7705 O   0  0  0  0  0  0  0  0  0  0  0  0
  -15.9381   -1.8966  -65.7709 C   0  0  0  0  0  0  0  0  0  0  0  0
  -21.0334   -4.1363  -68.3551 C   0  0  2  0  0  0  0  0  0  0  0  0
  -14.8624   -1.7243  -65.1398 O   0  0  0  0  0  0  0  0  0  0  0  0
  -20.2606   -3.5598  -67.3105 O   0  0  0  0  0  0  0  0  0  0  0  0
  -16.6135   -3.1074  -65.6730 C   0  0  0  0  0  0  0  0  0  0  0  0
  -20.6151   -5.6042  -68.5559 C   0  0  0  0  0  0  0  0  0  0  0  0
  -19.2915   -5.5865  -69.0193 O   0  0  0  0  0  0  0  0  0  0  0  0
  -17.7966   -3.2681  -66.3868 C   0  0  0  0  0  0  0  0  0  0  0  0
  -23.0932  -13.1864  -70.4973 H   0  0  0  0  0  0  0  0  0  0  0  0
  -21.8811  -14.4843  -70.7016 H   0  0  0  0  0  0  0  0  0  0  0  0
  -23.6168  -13.8599  -68.5254 H   0  0  0  0  0  0  0  0  0  0  0  0
  -20.6100  -12.5500  -70.3631 H   0  0  0  0  0  0  0  0  0  0  0  0
  -20.9118  -13.7041  -67.5016 H   0  0  0  0  0  0  0  0  0  0  0  0
  -18.8287  -14.7246  -68.4906 H   0  0  0  0  0  0  0  0  0  0  0  0
  -18.6014  -12.2168  -68.9203 H   0  0  0  0  0  0  0  0  0  0  0  0
  -18.3285  -13.9669  -67.1592 H   0  0  0  0  0  0  0  0  0  0  0  0
  -20.4640  -11.3689  -66.5798 H   0  0  0  0  0  0  0  0  0  0  0  0
  -18.0283  -10.6607  -67.2253 H   0  0  0  0  0  0  0  0  0  0  0  0
  -21.4052   -9.7732  -68.1288 H   0  0  0  0  0  0  0  0  0  0  0  0
  -20.2529   -1.5553  -67.6578 H   0  0  0  0  0  0  0  0  0  0  0  0
  -18.6384   -3.3457  -69.5856 H   0  0  0  0  0  0  0  0  0  0  0  0
  -18.5097   -7.4667  -67.2260 H   0  0  0  0  0  0  0  0  0  0  0  0
  -21.0163   -8.5276  -72.5796 H   0  0  0  0  0  0  0  0  0  0  0  0
  -20.1076   -1.2520  -70.5747 H   0  0  0  0  0  0  0  0  0  0  0  0
  -20.7491   -3.9623  -70.5544 H   0  0  0  0  0  0  0  0  0  0  0  0
  -15.9289    0.0088  -66.6128 H   0  0  0  0  0  0  0  0  0  0  0  0
  -22.5469   -2.7890  -70.3136 H   0  0  0  0  0  0  0  0  0  0  0  0
  -22.1074   -4.1158  -68.0656 H   0  0  0  0  0  0  0  0  0  0  0  0
  -16.2335   -3.9101  -65.0529 H   0  0  0  0  0  0  0  0  0  0  0  0
  -21.2898   -6.0571  -69.3117 H   0  0  0  0  0  0  0  0  0  0  0  0
  -20.6926   -6.1524  -67.5908 H   0  0  0  0  0  0  0  0  0  0  0  0
  -18.3300   -4.2031  -66.2885 H   0  0  0  0  0  0  0  0  0  0  0  0
  4  3  1  0
  5  3  1  0
  6  5  1  0
  7  5  1  0
  7  8  1  0
  9  7  1  0
  9 10  1  0
 11  9  1  0
 11 12  1  0
 13 11  1  0
 13  6  1  0
 14 15  1  0
 16  1  2  0
 17  2  2  0
 18 15  1  0
 19 14  1  0
 20 18  2  0
  1 21  1  1
  2 22  1  6
 19 23  1  0
 24 19  1  0
 25 18  1  0
 26  2  1  0
 26  1  1  0
 13 27  1  0
 27  2  1  0
 24 28  1  0
 29 25  1  0
 30 24  1  0
 31 29  2  0
 32 30  1  0
 32 14  1  0
 33 29  1  0
 30 34  1  0
 35 34  1  0
 35  1  1  0
 36 33  2  0
 36 15  1  0
  3 37  1  0
  3 38  1  0
  4 39  1  0
  5 40  1  6
  7 41  1  1
  8 42  1  0
  9 43  1  6
 10 44  1  0
 11 45  1  1
 12 46  1  0
 13 47  1  1
 14 48  1  6
 19 49  1  1
 21 50  1  0
 22 51  1  0
 23 52  1  0
 24 53  1  6
 25 54  1  0
 28 55  1  0
 30 56  1  1
 33 57  1  0
 34 58  1  0
 34 59  1  0
 36 60  1  0
M  END
