
     RDKit          3D

 73 77  0  0  0  0  0  0  0  0999 V2000
   22.6288    5.0021   50.4630 P   0  0  1  0  0  0  0  0  0  0  0  0
   22.7810    4.9424   47.6893 P   0  0  2  0  0  0  0  0  0  0  0  0
   23.3869    9.8380   53.5438 C   0  0  1  0  0  0  0  0  0  0  0  0
   21.1309    6.5040   43.3155 C   0  0  1  0  0  0  0  0  0  0  0  0
   23.8274   14.7992   54.5984 N   0  0  0  0  0  0  0  0  0  0  0  0
   21.7747    5.3354   42.6915 N   0  0  0  0  0  0  0  0  0  0  0  0
   21.3861    4.9198   51.5853 O   0  0  0  0  0  0  0  0  0  0  0  0
   22.6001    3.2837   47.5309 O   0  0  0  0  0  0  0  0  0  0  0  0
   24.8004   13.8468   54.4495 C   0  0  0  0  0  0  0  0  0  0  0  0
   22.8638    8.6041   54.2487 C   0  0  2  0  0  0  0  0  0  0  0  0
   19.9201    6.1822   44.1961 C   0  0  2  0  0  0  0  0  0  0  0  0
   22.0792    4.1260   43.4144 C   0  0  0  0  0  0  0  0  0  0  0  0
   23.2976    3.6481   50.4035 O   0  0  0  0  0  0  0  0  0  0  0  0
   23.2192    8.5511   55.6086 O   0  0  0  0  0  0  0  0  0  0  0  0
   18.7214    6.1422   43.4650 O   0  0  0  0  0  0  0  0  0  0  0  0
   24.2408    5.3254   47.7522 O   0  0  0  0  0  0  0  0  0  0  0  0
   23.4499    7.4987   53.3863 C   0  0  2  0  0  0  0  0  0  0  0  0
   19.9482    7.3501   45.1562 C   0  0  2  0  0  0  0  0  0  0  0  0
   22.7703    3.1204   42.8345 C   0  0  0  0  0  0  0  0  0  0  0  0
   24.4581   12.5527   54.1816 N   0  0  0  0  0  0  0  0  0  0  0  0
   21.8998    5.4720   49.0205 O   0  0  0  0  0  0  0  0  0  0  0  0
   24.5078    6.7725   53.9635 O   0  0  0  0  0  0  0  0  0  0  0  0
   19.2158    8.4444   44.6534 O   0  0  0  0  0  0  0  0  0  0  0  0
   23.1399   12.2439   54.0734 C   0  0  0  0  0  0  0  0  0  0  0  0
   23.8686    8.2166   52.0849 C   0  0  2  0  0  0  0  0  0  0  0  0
   21.4421    7.6948   45.2478 C   0  0  2  0  0  0  0  0  0  0  0  0
   23.3025    3.2539   41.4398 C   0  0  0  0  0  0  0  0  0  0  0  0
   23.4190    9.5550   52.1646 O   0  0  0  0  0  0  0  0  0  0  0  0
   22.0818    7.2127   44.0832 O   0  0  0  0  0  0  0  0  0  0  0  0
   22.1611   13.1579   54.2121 C   0  0  0  0  0  0  0  0  0  0  0  0
   23.2518    7.4815   50.8855 C   0  0  0  0  0  0  0  0  0  0  0  0
   22.1119    7.0737   46.4806 C   0  0  0  0  0  0  0  0  0  0  0  0
   23.0379    4.5654   40.7924 C   0  0  0  0  0  0  0  0  0  0  0  0
   23.7748    6.1680   50.9133 O   0  0  0  0  0  0  0  0  0  0  0  0
   22.0445    5.6734   46.3593 O   0  0  0  0  0  0  0  0  0  0  0  0
   22.5004   14.4827   54.4831 C   0  0  0  0  0  0  0  0  0  0  0  0
   22.3227    5.5176   41.3804 C   0  0  0  0  0  0  0  0  0  0  0  0
   21.5097   15.4885   54.6358 N   0  0  0  0  0  0  0  0  0  0  0  0
   23.0657    1.8375   43.5213 C   0  0  0  0  0  0  0  0  0  0  0  0
   20.9511   12.5792   54.0363 N   0  0  0  0  0  0  0  0  0  0  0  0
   22.9214    1.6985   44.9281 N   0  0  0  0  0  0  0  0  0  0  0  0
   23.4664    0.8406   42.8481 O   0  0  0  0  0  0  0  0  0  0  0  0
   21.2646   11.2746   53.7852 C   0  0  0  0  0  0  0  0  0  0  0  0
   22.6071   11.0454   53.8161 N   0  0  0  0  0  0  0  0  0  0  0  0
   24.4392   10.0103   53.8764 H   0  0  0  0  0  0  0  0  0  0  0  0
   20.7763    7.1921   42.5133 H   0  0  0  0  0  0  0  0  0  0  0  0
   21.8105    5.1423   52.4522 H   0  0  0  0  0  0  0  0  0  0  0  0
   21.7312    3.1687   47.0695 H   0  0  0  0  0  0  0  0  0  0  0  0
   25.8422   14.1208   54.5431 H   0  0  0  0  0  0  0  0  0  0  0  0
   21.7549    8.5707   54.1736 H   0  0  0  0  0  0  0  0  0  0  0  0
   20.0283    5.2466   44.7811 H   0  0  0  0  0  0  0  0  0  0  0  0
   21.7530    4.0268   44.4316 H   0  0  0  0  0  0  0  0  0  0  0  0
   22.6189    7.9031   56.0614 H   0  0  0  0  0  0  0  0  0  0  0  0
   18.7526    5.3082   42.9276 H   0  0  0  0  0  0  0  0  0  0  0  0
   22.6161    6.7833   53.1900 H   0  0  0  0  0  0  0  0  0  0  0  0
   19.5186    7.0611   46.1410 H   0  0  0  0  0  0  0  0  0  0  0  0
   24.1096    6.1924   54.6642 H   0  0  0  0  0  0  0  0  0  0  0  0
   18.2999    8.1419   44.4186 H   0  0  0  0  0  0  0  0  0  0  0  0
   24.9780    8.2175   51.9812 H   0  0  0  0  0  0  0  0  0  0  0  0
   21.5778    8.7976   45.3054 H   0  0  0  0  0  0  0  0  0  0  0  0
   24.4023    3.0958   41.4575 H   0  0  0  0  0  0  0  0  0  0  0  0
   22.8505    2.4632   40.8034 H   0  0  0  0  0  0  0  0  0  0  0  0
   23.5649    7.9786   49.9427 H   0  0  0  0  0  0  0  0  0  0  0  0
   22.1396    7.5275   50.9594 H   0  0  0  0  0  0  0  0  0  0  0  0
   23.1715    7.4150   46.5110 H   0  0  0  0  0  0  0  0  0  0  0  0
   21.5853    7.4285   47.3952 H   0  0  0  0  0  0  0  0  0  0  0  0
   23.4341    4.7408   39.7998 H   0  0  0  0  0  0  0  0  0  0  0  0
   22.1679    6.4486   40.8475 H   0  0  0  0  0  0  0  0  0  0  0  0
   21.2141   16.0794   53.8271 H   0  0  0  0  0  0  0  0  0  0  0  0
   21.0629   15.6485   55.5658 H   0  0  0  0  0  0  0  0  0  0  0  0
   22.1470    2.1747   45.4308 H   0  0  0  0  0  0  0  0  0  0  0  0
   23.3813    0.8973   45.4148 H   0  0  0  0  0  0  0  0  0  0  0  0
   20.5242   10.5164   53.5683 H   0  0  0  0  0  0  0  0  0  0  0  0
  4  6  1  0
  1  7  1  1
  2  8  1  6
  9  5  2  0
 10  3  1  0
 11  4  1  0
 12  6  1  0
 13  1  2  0
 10 14  1  0
 11 15  1  0
 16  2  2  0
 17 10  1  0
 18 11  1  0
 19 12  2  0
 20  9  1  0
 21  2  1  0
 21  1  1  0
 17 22  1  0
 18 23  1  0
 24 20  2  0
 25 17  1  0
 26 18  1  0
 27 19  1  0
 28 25  1  0
 28  3  1  0
 29  4  1  0
 29 26  1  0
 30 24  1  0
 25 31  1  0
 26 32  1  0
 33 27  1  0
 34  1  1  0
 34 31  1  0
 35  2  1  0
 35 32  1  0
 36 30  2  0
 36  5  1  0
 37  6  1  0
 37 33  2  0
 38 36  1  0
 39 19  1  0
 40 30  1  0
 41 39  1  0
 42 39  2  0
 43 40  2  0
 44 43  1  0
  3 44  1  0
 44 24  1  0
  3 45  1  1
  4 46  1  6
  7 47  1  0
  8 48  1  0
  9 49  1  0
 10 50  1  1
 11 51  1  1
 12 52  1  0
 14 53  1  0
 15 54  1  0
 17 55  1  6
 18 56  1  1
 22 57  1  0
 23 58  1  0
 25 59  1  6
 26 60  1  1
 27 61  1  0
 27 62  1  0
 31 63  1  0
 31 64  1  0
 32 65  1  0
 32 66  1  0
 33 67  1  0
 37 68  1  0
 38 69  1  0
 38 70  1  0
 41 71  1  0
 41 72  1  0
 43 73  1  0
M  END
