
     RDKit          3D

 73 77  0  0  0  0  0  0  0  0999 V2000
  -24.7099   25.4457   66.1833 P   0  0  1  0  0  0  0  0  0  0  0  0
  -26.0969   26.4726   63.9906 P   0  0  2  0  0  0  0  0  0  0  0  0
  -27.3677   22.7782   70.6555 C   0  0  1  0  0  0  0  0  0  0  0  0
  -29.2470   25.7308   60.2117 C   0  0  1  0  0  0  0  0  0  0  0  0
  -30.9330   20.3154   73.4126 N   0  0  0  0  0  0  0  0  0  0  0  0
  -28.7826   26.9908   59.6166 N   0  0  0  0  0  0  0  0  0  0  0  0
  -23.7528   24.1001   66.4710 O   0  0  0  0  0  0  0  0  0  0  0  0
  -24.8077   27.1586   63.1710 O   0  0  0  0  0  0  0  0  0  0  0  0
  -30.4905   21.6072   73.5230 C   0  0  0  0  0  0  0  0  0  0  0  0
  -25.8492   22.6723   70.5944 C   0  0  2  0  0  0  0  0  0  0  0  0
  -28.2025   24.6037   60.2241 C   0  0  2  0  0  0  0  0  0  0  0  0
  -27.8000   27.7973   60.2814 C   0  0  0  0  0  0  0  0  0  0  0  0
  -23.8189   26.6601   66.0590 O   0  0  0  0  0  0  0  0  0  0  0  0
  -25.2283   22.5432   71.8508 O   0  0  0  0  0  0  0  0  0  0  0  0
  -28.1575   23.8440   59.0380 O   0  0  0  0  0  0  0  0  0  0  0  0
  -26.7765   27.4956   64.8706 O   0  0  0  0  0  0  0  0  0  0  0  0
  -25.4813   23.9442   69.8413 C   0  0  2  0  0  0  0  0  0  0  0  0
  -28.6470   23.8025   61.4328 C   0  0  2  0  0  0  0  0  0  0  0  0
  -27.4665   29.0101   59.8172 C   0  0  0  0  0  0  0  0  0  0  0  0
  -29.5123   22.0753   72.6895 N   0  0  0  0  0  0  0  0  0  0  0  0
  -25.5696   25.0858   64.7852 O   0  0  0  0  0  0  0  0  0  0  0  0
  -24.8910   24.9563   70.6273 O   0  0  0  0  0  0  0  0  0  0  0  0
  -29.6411   22.8721   61.0816 O   0  0  0  0  0  0  0  0  0  0  0  0
  -28.9968   21.2293   71.7596 C   0  0  0  0  0  0  0  0  0  0  0  0
  -26.8104   24.3676   69.1675 C   0  0  2  0  0  0  0  0  0  0  0  0
  -29.2713   24.8723   62.3388 C   0  0  2  0  0  0  0  0  0  0  0  0
  -28.2351   29.6534   58.7009 C   0  0  0  0  0  0  0  0  0  0  0  0
  -27.7801   23.3748   69.4484 O   0  0  0  0  0  0  0  0  0  0  0  0
  -29.6308   25.9840   61.5438 O   0  0  0  0  0  0  0  0  0  0  0  0
  -29.4181   19.9537   71.6260 C   0  0  0  0  0  0  0  0  0  0  0  0
  -26.6235   24.5305   67.6507 C   0  0  0  0  0  0  0  0  0  0  0  0
  -28.3160   25.3346   63.4521 C   0  0  0  0  0  0  0  0  0  0  0  0
  -29.2527   28.7724   58.0640 C   0  0  0  0  0  0  0  0  0  0  0  0
  -25.8054   25.6653   67.4554 O   0  0  0  0  0  0  0  0  0  0  0  0
  -27.1835   25.8961   62.8383 O   0  0  0  0  0  0  0  0  0  0  0  0
  -30.4154   19.4667   72.4730 C   0  0  0  0  0  0  0  0  0  0  0  0
  -29.5026   27.5408   58.5049 C   0  0  0  0  0  0  0  0  0  0  0  0
  -30.8939   18.1321   72.3766 N   0  0  0  0  0  0  0  0  0  0  0  0
  -26.2802   29.7332   60.3153 C   0  0  0  0  0  0  0  0  0  0  0  0
  -28.7528   19.3455   70.6193 N   0  0  0  0  0  0  0  0  0  0  0  0
  -25.5980   29.3247   61.4945 N   0  0  0  0  0  0  0  0  0  0  0  0
  -25.8273   30.7087   59.6494 O   0  0  0  0  0  0  0  0  0  0  0  0
  -27.9165   20.3221   70.1624 C   0  0  0  0  0  0  0  0  0  0  0  0
  -28.0380   21.4878   70.8561 N   0  0  0  0  0  0  0  0  0  0  0  0
  -27.6512   23.4645   71.4886 H   0  0  0  0  0  0  0  0  0  0  0  0
  -30.1529   25.3718   59.6719 H   0  0  0  0  0  0  0  0  0  0  0  0
  -23.1896   24.3497   67.2465 H   0  0  0  0  0  0  0  0  0  0  0  0
  -24.2932   26.3881   62.8207 H   0  0  0  0  0  0  0  0  0  0  0  0
  -30.9163   22.2597   74.2728 H   0  0  0  0  0  0  0  0  0  0  0  0
  -25.5643   21.7952   69.9729 H   0  0  0  0  0  0  0  0  0  0  0  0
  -27.1791   24.9755   60.4179 H   0  0  0  0  0  0  0  0  0  0  0  0
  -27.2746   27.3969   61.1247 H   0  0  0  0  0  0  0  0  0  0  0  0
  -24.5247   21.8473   71.7832 H   0  0  0  0  0  0  0  0  0  0  0  0
  -28.7605   24.2599   58.3689 H   0  0  0  0  0  0  0  0  0  0  0  0
  -24.7243   23.6591   69.0784 H   0  0  0  0  0  0  0  0  0  0  0  0
  -27.7839   23.2890   61.9207 H   0  0  0  0  0  0  0  0  0  0  0  0
  -25.5730   25.2604   71.2810 H   0  0  0  0  0  0  0  0  0  0  0  0
  -29.3502   21.9932   61.4402 H   0  0  0  0  0  0  0  0  0  0  0  0
  -27.1716   25.3346   69.5860 H   0  0  0  0  0  0  0  0  0  0  0  0
  -30.1878   24.4715   62.8265 H   0  0  0  0  0  0  0  0  0  0  0  0
  -28.7483   30.5564   59.0944 H   0  0  0  0  0  0  0  0  0  0  0  0
  -27.5324   29.9750   57.9026 H   0  0  0  0  0  0  0  0  0  0  0  0
  -27.6111   24.7194   67.1779 H   0  0  0  0  0  0  0  0  0  0  0  0
  -26.2132   23.5843   67.2261 H   0  0  0  0  0  0  0  0  0  0  0  0
  -28.8438   26.0898   64.0770 H   0  0  0  0  0  0  0  0  0  0  0  0
  -28.0377   24.4609   64.0835 H   0  0  0  0  0  0  0  0  0  0  0  0
  -29.8208   29.1584   57.2266 H   0  0  0  0  0  0  0  0  0  0  0  0
  -30.2698   26.9571   58.0104 H   0  0  0  0  0  0  0  0  0  0  0  0
  -30.4727   17.4714   71.6865 H   0  0  0  0  0  0  0  0  0  0  0  0
  -31.6687   17.7936   72.9895 H   0  0  0  0  0  0  0  0  0  0  0  0
  -25.3817   28.3160   61.6363 H   0  0  0  0  0  0  0  0  0  0  0  0
  -24.9943   30.0111   61.9990 H   0  0  0  0  0  0  0  0  0  0  0  0
  -27.2409   20.1826   69.3289 H   0  0  0  0  0  0  0  0  0  0  0  0
  4  6  1  0
  1  7  1  1
  2  8  1  6
  9  5  2  0
 10  3  1  0
 11  4  1  0
 12  6  1  0
 13  1  2  0
 10 14  1  0
 11 15  1  0
 16  2  2  0
 17 10  1  0
 18 11  1  0
 19 12  2  0
 20  9  1  0
 21  2  1  0
 21  1  1  0
 17 22  1  0
 18 23  1  0
 24 20  2  0
 25 17  1  0
 26 18  1  0
 27 19  1  0
 28 25  1  0
 28  3  1  0
 29 26  1  0
 29  4  1  0
 30 24  1  0
 25 31  1  0
 26 32  1  0
 33 27  1  0
 34 31  1  0
 34  1  1  0
 35 32  1  0
 35  2  1  0
 36 30  2  0
 36  5  1  0
 37 33  2  0
 37  6  1  0
 38 36  1  0
 39 19  1  0
 40 30  1  0
 41 39  1  0
 42 39  2  0
 43 40  2  0
 44 43  1  0
 44 24  1  0
  3 44  1  0
  3 45  1  1
  4 46  1  6
  7 47  1  0
  8 48  1  0
  9 49  1  0
 10 50  1  6
 11 51  1  1
 12 52  1  0
 14 53  1  0
 15 54  1  0
 17 55  1  6
 18 56  1  1
 22 57  1  0
 23 58  1  0
 25 59  1  1
 26 60  1  1
 27 61  1  0
 27 62  1  0
 31 63  1  0
 31 64  1  0
 32 65  1  0
 32 66  1  0
 33 67  1  0
 37 68  1  0
 38 69  1  0
 38 70  1  0
 41 71  1  0
 41 72  1  0
 43 73  1  0
M  END
