
     RDKit          3D

 60 62  0  0  0  0  0  0  0  0999 V2000
  -30.6969  -23.7091   58.3796 P   0  0  2  0  0  0  0  0  0  0  0  0
  -28.1271  -24.6390   59.1983 P   0  0  1  0  0  0  0  0  0  0  0  0
  -24.2890  -27.2221   57.1842 C   0  0  0  0  0  0  0  0  0  0  0  0
  -23.7660  -27.3951   55.8886 O   0  0  0  0  0  0  0  0  0  0  0  0
  -25.8421  -27.2244   57.2122 C   0  0  1  0  0  0  0  0  0  0  0  0
  -26.3194  -25.9305   56.8495 O   0  0  0  0  0  0  0  0  0  0  0  0
  -26.4619  -28.3249   56.3086 C   0  0  1  0  0  0  0  0  0  0  0  0
  -26.0168  -29.5955   56.7109 O   0  0  0  0  0  0  0  0  0  0  0  0
  -27.9971  -28.2561   56.4034 C   0  0  2  0  0  0  0  0  0  0  0  0
  -28.6138  -29.2055   55.5681 O   0  0  0  0  0  0  0  0  0  0  0  0
  -28.4607  -26.8425   56.0319 C   0  0  1  0  0  0  0  0  0  0  0  0
  -29.8549  -26.7543   56.2094 O   0  0  0  0  0  0  0  0  0  0  0  0
  -27.7450  -25.8151   56.9272 C   0  0  1  0  0  0  0  0  0  0  0  0
  -31.8302  -18.9267   57.6414 C   0  0  1  0  0  0  0  0  0  0  0  0
  -33.0179  -19.1868   56.8015 N   0  0  0  0  0  0  0  0  0  0  0  0
  -32.0766  -24.1990   58.7614 O   0  0  0  0  0  0  0  0  0  0  0  0
  -27.2476  -23.5414   58.6359 O   0  0  0  0  0  0  0  0  0  0  0  0
  -33.7830  -18.1471   56.3230 C   0  0  0  0  0  0  0  0  0  0  0  0
  -31.9725  -19.4559   59.0681 C   0  0  2  0  0  0  0  0  0  0  0  0
  -33.5323  -16.9543   56.6515 O   0  0  0  0  0  0  0  0  0  0  0  0
  -30.3169  -24.2972   56.8574 O   0  0  0  0  0  0  0  0  0  0  0  0
  -27.4767  -25.1543   60.6629 O   0  0  0  0  0  0  0  0  0  0  0  0
  -32.7194  -18.6276   59.9258 O   0  0  0  0  0  0  0  0  0  0  0  0
  -30.5161  -19.5615   59.4749 C   0  0  2  0  0  0  0  0  0  0  0  0
  -34.8219  -18.3933   55.4777 N   0  0  0  0  0  0  0  0  0  0  0  0
  -29.6676  -24.1134   59.6602 O   0  0  0  0  0  0  0  0  0  0  0  0
  -28.2131  -26.0266   58.2377 O   0  0  0  0  0  0  0  0  0  0  0  0
  -30.0328  -18.3252   59.9365 O   0  0  0  0  0  0  0  0  0  0  0  0
  -35.1252  -19.6596   55.0850 C   0  0  0  0  0  0  0  0  0  0  0  0
  -29.8297  -19.9130   58.1389 C   0  0  2  0  0  0  0  0  0  0  0  0
  -36.0871  -19.8618   54.2981 O   0  0  0  0  0  0  0  0  0  0  0  0
  -30.6950  -19.5478   57.0735 O   0  0  0  0  0  0  0  0  0  0  0  0
  -34.3731  -20.7319   55.5557 C   0  0  0  0  0  0  0  0  0  0  0  0
  -29.5652  -21.4214   58.0679 C   0  0  0  0  0  0  0  0  0  0  0  0
  -30.8027  -22.0363   58.3081 O   0  0  0  0  0  0  0  0  0  0  0  0
  -33.3115  -20.4716   56.4191 C   0  0  0  0  0  0  0  0  0  0  0  0
  -23.9171  -26.2584   57.5929 H   0  0  0  0  0  0  0  0  0  0  0  0
  -23.9077  -28.0218   57.8615 H   0  0  0  0  0  0  0  0  0  0  0  0
  -24.5358  -27.5598   55.2839 H   0  0  0  0  0  0  0  0  0  0  0  0
  -26.1290  -27.4306   58.2693 H   0  0  0  0  0  0  0  0  0  0  0  0
  -26.1544  -28.1302   55.2534 H   0  0  0  0  0  0  0  0  0  0  0  0
  -25.4473  -29.4615   57.5130 H   0  0  0  0  0  0  0  0  0  0  0  0
  -28.3031  -28.4831   57.4492 H   0  0  0  0  0  0  0  0  0  0  0  0
  -28.0842  -30.0441   55.6203 H   0  0  0  0  0  0  0  0  0  0  0  0
  -28.1936  -26.6207   54.9706 H   0  0  0  0  0  0  0  0  0  0  0  0
  -30.2620  -27.4839   55.6731 H   0  0  0  0  0  0  0  0  0  0  0  0
  -28.0259  -24.8102   56.5415 H   0  0  0  0  0  0  0  0  0  0  0  0
  -31.6032  -17.8371   57.6792 H   0  0  0  0  0  0  0  0  0  0  0  0
  -32.4487  -20.4578   59.0696 H   0  0  0  0  0  0  0  0  0  0  0  0
  -30.2376  -25.2774   56.9758 H   0  0  0  0  0  0  0  0  0  0  0  0
  -27.4386  -24.3401   61.2258 H   0  0  0  0  0  0  0  0  0  0  0  0
  -33.6440  -18.9823   59.9886 H   0  0  0  0  0  0  0  0  0  0  0  0
  -30.3728  -20.3472   60.2558 H   0  0  0  0  0  0  0  0  0  0  0  0
  -35.3943  -17.5945   55.1196 H   0  0  0  0  0  0  0  0  0  0  0  0
  -30.2330  -18.2821   60.9080 H   0  0  0  0  0  0  0  0  0  0  0  0
  -28.8633  -19.3725   58.0320 H   0  0  0  0  0  0  0  0  0  0  0  0
  -34.5979  -21.7472   55.2527 H   0  0  0  0  0  0  0  0  0  0  0  0
  -28.8360  -21.6826   58.8609 H   0  0  0  0  0  0  0  0  0  0  0  0
  -29.1678  -21.6895   57.0638 H   0  0  0  0  0  0  0  0  0  0  0  0
  -32.7129  -21.3030   56.7647 H   0  0  0  0  0  0  0  0  0  0  0  0
  4  3  1  0
  5  3  1  0
  6  5  1  0
  7  5  1  0
  7  8  1  0
  9  7  1  0
  9 10  1  0
 11  9  1  0
 11 12  1  0
 13 11  1  0
 13  6  1  0
 14 15  1  0
 16  1  2  0
 17  2  2  0
 18 15  1  0
 19 14  1  0
 20 18  2  0
  1 21  1  6
  2 22  1  1
 19 23  1  0
 24 19  1  0
 25 18  1  0
 26  2  1  0
 26  1  1  0
 13 27  1  0
 27  2  1  0
 24 28  1  0
 29 25  1  0
 30 24  1  0
 31 29  2  0
 32 14  1  0
 32 30  1  0
 33 29  1  0
 30 34  1  0
 35  1  1  0
 35 34  1  0
 36 33  2  0
 36 15  1  0
  3 37  1  0
  3 38  1  0
  4 39  1  0
  5 40  1  1
  7 41  1  6
  8 42  1  0
  9 43  1  1
 10 44  1  0
 11 45  1  6
 12 46  1  0
 13 47  1  6
 14 48  1  1
 19 49  1  6
 21 50  1  0
 22 51  1  0
 23 52  1  0
 24 53  1  1
 25 54  1  0
 28 55  1  0
 30 56  1  6
 33 57  1  0
 34 58  1  0
 34 59  1  0
 36 60  1  0
M  END
