
     RDKit          3D

 73 77  0  0  0  0  0  0  0  0999 V2000
  -48.0745  -16.8304   20.1198 P   0  0  1  0  0  0  0  0  0  0  0  0
  -48.2893  -17.7877   22.7236 P   0  0  2  0  0  0  0  0  0  0  0  0
  -51.9546  -13.0201   18.0043 C   0  0  1  0  0  0  0  0  0  0  0  0
  -48.2286  -16.6991   27.6055 C   0  0  1  0  0  0  0  0  0  0  0  0
  -55.6022   -9.4465   17.8927 N   0  0  0  0  0  0  0  0  0  0  0  0
  -47.8534  -18.0777   27.9453 N   0  0  0  0  0  0  0  0  0  0  0  0
  -47.0994  -15.7138   19.3382 O   0  0  0  0  0  0  0  0  0  0  0  0
  -47.0269  -18.8834   22.7101 O   0  0  0  0  0  0  0  0  0  0  0  0
  -55.6826  -10.7807   17.5920 C   0  0  0  0  0  0  0  0  0  0  0  0
  -50.7576  -13.3246   17.1225 C   0  0  2  0  0  0  0  0  0  0  0  0
  -47.1444  -15.9263   26.8478 C   0  0  2  0  0  0  0  0  0  0  0  0
  -47.3953  -18.9884   26.9346 C   0  0  0  0  0  0  0  0  0  0  0  0
  -47.6500  -18.2289   19.7314 O   0  0  0  0  0  0  0  0  0  0  0  0
  -51.0170  -13.1783   15.7456 O   0  0  0  0  0  0  0  0  0  0  0  0
  -46.1748  -15.3424   27.6867 O   0  0  0  0  0  0  0  0  0  0  0  0
  -49.5990  -18.4579   22.3749 O   0  0  0  0  0  0  0  0  0  0  0  0
  -50.4318  -14.7485   17.5522 C   0  0  2  0  0  0  0  0  0  0  0  0
  -47.9787  -14.9177   26.0822 C   0  0  2  0  0  0  0  0  0  0  0  0
  -47.1390  -20.2759   27.2193 C   0  0  0  0  0  0  0  0  0  0  0  0
  -54.5701  -11.5710   17.6668 N   0  0  0  0  0  0  0  0  0  0  0  0
  -47.8831  -16.4814   21.7499 O   0  0  0  0  0  0  0  0  0  0  0  0
  -50.8066  -15.7449   16.6257 O   0  0  0  0  0  0  0  0  0  0  0  0
  -48.2279  -13.7735   26.8601 O   0  0  0  0  0  0  0  0  0  0  0  0
  -53.3964  -10.9971   18.0406 C   0  0  0  0  0  0  0  0  0  0  0  0
  -51.1308  -14.8849   18.9308 C   0  0  2  0  0  0  0  0  0  0  0  0
  -49.3012  -15.6719   25.8619 C   0  0  2  0  0  0  0  0  0  0  0  0
  -47.4766  -20.8504   28.5650 C   0  0  0  0  0  0  0  0  0  0  0  0
  -51.7276  -13.6431   19.2442 O   0  0  0  0  0  0  0  0  0  0  0  0
  -49.3907  -16.7215   26.8078 O   0  0  0  0  0  0  0  0  0  0  0  0
  -53.2889   -9.6898   18.3452 C   0  0  0  0  0  0  0  0  0  0  0  0
  -50.1232  -15.2849   20.0145 C   0  0  0  0  0  0  0  0  0  0  0  0
  -49.4053  -16.2602   24.4444 C   0  0  0  0  0  0  0  0  0  0  0  0
  -48.0043  -19.8639   29.5510 C   0  0  0  0  0  0  0  0  0  0  0  0
  -49.6937  -16.5907   19.7002 O   0  0  0  0  0  0  0  0  0  0  0  0
  -48.3339  -17.1516   24.2823 O   0  0  0  0  0  0  0  0  0  0  0  0
  -54.4176   -8.8764   18.2734 C   0  0  0  0  0  0  0  0  0  0  0  0
  -48.1725  -18.5787   29.2493 C   0  0  0  0  0  0  0  0  0  0  0  0
  -54.3556   -7.4920   18.5821 N   0  0  0  0  0  0  0  0  0  0  0  0
  -46.4728  -21.1719   26.2444 C   0  0  0  0  0  0  0  0  0  0  0  0
  -52.0184   -9.3929   18.6996 N   0  0  0  0  0  0  0  0  0  0  0  0
  -46.2702  -20.7745   24.8947 N   0  0  0  0  0  0  0  0  0  0  0  0
  -46.0318  -22.2966   26.6231 O   0  0  0  0  0  0  0  0  0  0  0  0
  -51.3768  -10.5919   18.5912 C   0  0  0  0  0  0  0  0  0  0  0  0
  -52.2040  -11.5903   18.1767 N   0  0  0  0  0  0  0  0  0  0  0  0
  -52.8610  -13.4911   17.5534 H   0  0  0  0  0  0  0  0  0  0  0  0
  -48.4817  -16.1386   28.5347 H   0  0  0  0  0  0  0  0  0  0  0  0
  -47.1407  -15.9667   18.3816 H   0  0  0  0  0  0  0  0  0  0  0  0
  -46.3239  -18.4517   22.1618 H   0  0  0  0  0  0  0  0  0  0  0  0
  -56.6296  -11.2102   17.2952 H   0  0  0  0  0  0  0  0  0  0  0  0
  -49.9096  -12.6597   17.3975 H   0  0  0  0  0  0  0  0  0  0  0  0
  -46.6111  -16.5591   26.1132 H   0  0  0  0  0  0  0  0  0  0  0  0
  -47.2249  -18.6226   25.9403 H   0  0  0  0  0  0  0  0  0  0  0  0
  -51.8656  -13.6444   15.5301 H   0  0  0  0  0  0  0  0  0  0  0  0
  -46.6348  -14.8710   28.4286 H   0  0  0  0  0  0  0  0  0  0  0  0
  -49.3262  -14.8133   17.6568 H   0  0  0  0  0  0  0  0  0  0  0  0
  -47.4894  -14.6354   25.1190 H   0  0  0  0  0  0  0  0  0  0  0  0
  -51.5573  -15.3842   16.0860 H   0  0  0  0  0  0  0  0  0  0  0  0
  -47.4632  -13.1569   26.7158 H   0  0  0  0  0  0  0  0  0  0  0  0
  -51.9324  -15.6573   18.8905 H   0  0  0  0  0  0  0  0  0  0  0  0
  -50.1635  -14.9841   26.0082 H   0  0  0  0  0  0  0  0  0  0  0  0
  -48.2354  -21.6505   28.4312 H   0  0  0  0  0  0  0  0  0  0  0  0
  -46.5652  -21.3096   29.0042 H   0  0  0  0  0  0  0  0  0  0  0  0
  -50.6297  -15.3004   21.0037 H   0  0  0  0  0  0  0  0  0  0  0  0
  -49.3061  -14.5264   20.0478 H   0  0  0  0  0  0  0  0  0  0  0  0
  -50.3786  -16.7918   24.3490 H   0  0  0  0  0  0  0  0  0  0  0  0
  -49.3569  -15.4356   23.6978 H   0  0  0  0  0  0  0  0  0  0  0  0
  -48.2606  -20.2108   30.5444 H   0  0  0  0  0  0  0  0  0  0  0  0
  -48.5657  -17.9135   30.0088 H   0  0  0  0  0  0  0  0  0  0  0  0
  -54.8503   -7.1188   19.4224 H   0  0  0  0  0  0  0  0  0  0  0  0
  -53.8188   -6.8295   17.9790 H   0  0  0  0  0  0  0  0  0  0  0  0
  -45.9173  -19.8165   24.6914 H   0  0  0  0  0  0  0  0  0  0  0  0
  -46.1052  -21.5032   24.1654 H   0  0  0  0  0  0  0  0  0  0  0  0
  -50.3303  -10.7315   18.8281 H   0  0  0  0  0  0  0  0  0  0  0  0
  4  6  1  0
  1  7  1  6
  2  8  1  1
  9  5  2  0
 10  3  1  0
 11  4  1  0
 12  6  1  0
 13  1  2  0
 10 14  1  0
 11 15  1  0
 16  2  2  0
 17 10  1  0
 18 11  1  0
 19 12  2  0
 20  9  1  0
 21  1  1  0
 21  2  1  0
 17 22  1  0
 18 23  1  0
 24 20  2  0
 25 17  1  0
 26 18  1  0
 27 19  1  0
 28 25  1  0
 28  3  1  0
 29 26  1  0
 29  4  1  0
 30 24  1  0
 25 31  1  0
 26 32  1  0
 33 27  1  0
 34 31  1  0
 34  1  1  0
 35 32  1  0
 35  2  1  0
 36  5  1  0
 36 30  2  0
 37 33  2  0
 37  6  1  0
 38 36  1  0
 39 19  1  0
 40 30  1  0
 41 39  1  0
 42 39  2  0
 43 40  2  0
  3 44  1  0
 44 43  1  0
 44 24  1  0
  3 45  1  6
  4 46  1  1
  7 47  1  0
  8 48  1  0
  9 49  1  0
 10 50  1  1
 11 51  1  6
 12 52  1  0
 14 53  1  0
 15 54  1  0
 17 55  1  1
 18 56  1  6
 22 57  1  0
 23 58  1  0
 25 59  1  6
 26 60  1  1
 27 61  1  0
 27 62  1  0
 31 63  1  0
 31 64  1  0
 32 65  1  0
 32 66  1  0
 33 67  1  0
 37 68  1  0
 38 69  1  0
 38 70  1  0
 41 71  1  0
 41 72  1  0
 43 73  1  0
M  END
