
     RDKit          3D

 34 34  0  0  0  0  0  0  0  0999 V2000
   22.9614   66.6451   64.3153 N   0  0  0  0  0  0  0  0  0  0  0  0
   21.8894   67.2501   65.0643 C   0  0  0  0  0  0  0  0  0  0  0  0
   21.8756   67.0600   66.5243 C   0  0  0  0  0  0  0  0  0  0  0  0
   20.8050   67.1968   67.1729 O   0  0  0  0  0  0  0  0  0  0  0  0
   20.8570   67.8789   64.4694 C   0  0  0  0  0  0  0  0  0  0  0  0
   21.0182   65.1886   58.2648 P   0  0  0  0  0  0  0  0  0  0  0  0
   23.0441   66.7376   67.1915 O   0  0  0  0  0  0  0  0  0  0  0  0
   25.7820   64.1165   61.0023 N   0  0  0  0  0  0  0  0  0  0  0  0
   26.2055   64.6815   62.1525 C   0  0  0  0  0  0  0  0  0  0  0  0
   27.5793   64.3354   62.6506 C   0  0  0  0  0  0  0  0  0  0  0  0
   25.3534   65.5617   62.8487 C   0  0  0  0  0  0  0  0  0  0  0  0
   25.7647   66.1547   64.0372 O   0  0  0  0  0  0  0  0  0  0  0  0
   24.0758   65.8636   62.3287 C   0  0  0  0  0  0  0  0  0  0  0  0
   23.1602   66.7793   63.0383 C   0  0  0  0  0  0  0  0  0  0  0  0
   23.6735   65.2703   61.1148 C   0  0  0  0  0  0  0  0  0  0  0  0
   22.3200   65.5365   60.4736 C   0  0  0  0  0  0  0  0  0  0  0  0
   24.5656   64.3731   60.4842 C   0  0  0  0  0  0  0  0  0  0  0  0
   20.4284   63.8171   58.0275 O   0  0  0  0  0  0  0  0  0  0  0  0
   19.9136   66.2246   58.9736 O   0  0  0  0  0  0  0  0  0  0  0  0
   21.5333   65.8563   56.8227 O   0  0  0  0  0  0  0  0  0  0  0  0
   22.4085   65.0247   59.1759 O   0  0  0  0  0  0  0  0  0  0  0  0
   20.0461   68.2973   65.0516 H   0  0  0  0  0  0  0  0  0  0  0  0
   20.7582   67.9841   63.4014 H   0  0  0  0  0  0  0  0  0  0  0  0
   23.3507   67.2750   67.9938 H   0  0  0  0  0  0  0  0  0  0  0  0
   28.3365   64.5907   61.8798 H   0  0  0  0  0  0  0  0  0  0  0  0
   27.6552   63.2484   62.8667 H   0  0  0  0  0  0  0  0  0  0  0  0
   27.7935   64.8927   63.5866 H   0  0  0  0  0  0  0  0  0  0  0  0
   25.2191   66.8489   64.5316 H   0  0  0  0  0  0  0  0  0  0  0  0
   22.5575   67.4467   62.4468 H   0  0  0  0  0  0  0  0  0  0  0  0
   21.5251   65.0163   61.0521 H   0  0  0  0  0  0  0  0  0  0  0  0
   22.1314   66.6297   60.4246 H   0  0  0  0  0  0  0  0  0  0  0  0
   24.3128   63.8459   59.5753 H   0  0  0  0  0  0  0  0  0  0  0  0
   20.3344   66.5036   59.8257 H   0  0  0  0  0  0  0  0  0  0  0  0
   22.1918   65.2096   56.4628 H   0  0  0  0  0  0  0  0  0  0  0  0
  2  1  1  0
  3  2  1  0
  4  3  2  0
  5  2  2  0
  7  3  1  0
  9  8  2  0
 10  9  1  0
 11  9  1  0
 12 11  1  0
 13 11  2  0
 14 13  1  0
 14  1  2  3
 15 13  1  0
 16 15  1  0
 17 15  2  0
 17  8  1  0
 18  6  2  0
 19  6  1  0
 20  6  1  0
 21  6  1  0
 21 16  1  0
  5 22  1  0
  5 23  1  0
  7 24  1  0
 10 25  1  0
 10 26  1  0
 10 27  1  0
 12 28  1  0
 14 29  1  0
 16 30  1  0
 16 31  1  0
 17 32  1  0
 19 33  1  0
 20 34  1  0
M  END
