
     RDKit          3D

 34 34  0  0  0  0  0  0  0  0999 V2000
   14.3198   44.4063   92.9620 N   0  0  0  0  0  0  0  0  0  0  0  0
   13.2190   44.7341   92.0933 C   0  0  0  0  0  0  0  0  0  0  0  0
   13.4965   44.8189   90.6527 C   0  0  0  0  0  0  0  0  0  0  0  0
   12.6073   45.1904   89.8413 O   0  0  0  0  0  0  0  0  0  0  0  0
   12.0000   45.0620   92.5605 C   0  0  0  0  0  0  0  0  0  0  0  0
   13.4768   46.9471   98.8686 P   0  0  0  0  0  0  0  0  0  0  0  0
   14.7594   44.4946   90.1903 O   0  0  0  0  0  0  0  0  0  0  0  0
   17.7596   44.1107   96.6321 N   0  0  0  0  0  0  0  0  0  0  0  0
   17.7522   43.3950   95.4874 C   0  0  0  0  0  0  0  0  0  0  0  0
   18.9741   42.6115   95.1178 C   0  0  0  0  0  0  0  0  0  0  0  0
   16.6105   43.3853   94.6723 C   0  0  0  0  0  0  0  0  0  0  0  0
   16.6440   42.6231   93.5071 O   0  0  0  0  0  0  0  0  0  0  0  0
   15.4626   44.1211   95.0621 C   0  0  0  0  0  0  0  0  0  0  0  0
   14.2397   44.1644   94.2349 C   0  0  0  0  0  0  0  0  0  0  0  0
   15.4987   44.8467   96.2726 C   0  0  0  0  0  0  0  0  0  0  0  0
   14.3161   45.6614   96.7785 C   0  0  0  0  0  0  0  0  0  0  0  0
   16.6926   44.8291   97.0294 C   0  0  0  0  0  0  0  0  0  0  0  0
   13.9659   48.3636   99.0593 O   0  0  0  0  0  0  0  0  0  0  0  0
   13.3102   46.1869  100.3478 O   0  0  0  0  0  0  0  0  0  0  0  0
   12.0072   46.9083   98.0762 O   0  0  0  0  0  0  0  0  0  0  0  0
   14.6587   46.0739   98.0699 O   0  0  0  0  0  0  0  0  0  0  0  0
   11.7613   45.0979   93.6116 H   0  0  0  0  0  0  0  0  0  0  0  0
   11.1973   45.3353   91.8872 H   0  0  0  0  0  0  0  0  0  0  0  0
   15.1132   44.8858   89.3254 H   0  0  0  0  0  0  0  0  0  0  0  0
   19.7316   42.6923   95.9256 H   0  0  0  0  0  0  0  0  0  0  0  0
   19.4014   43.0060   94.1720 H   0  0  0  0  0  0  0  0  0  0  0  0
   18.7243   41.5387   94.9736 H   0  0  0  0  0  0  0  0  0  0  0  0
   16.8517   41.6339   93.4918 H   0  0  0  0  0  0  0  0  0  0  0  0
   13.2851   44.1205   94.7323 H   0  0  0  0  0  0  0  0  0  0  0  0
   14.1552   46.5391   96.1149 H   0  0  0  0  0  0  0  0  0  0  0  0
   13.4073   45.0247   96.8268 H   0  0  0  0  0  0  0  0  0  0  0  0
   16.8074   45.3929   97.9443 H   0  0  0  0  0  0  0  0  0  0  0  0
   12.6384   46.7259  100.8368 H   0  0  0  0  0  0  0  0  0  0  0  0
   11.3364   46.7670   98.7911 H   0  0  0  0  0  0  0  0  0  0  0  0
  2  1  1  0
  3  2  1  0
  4  3  2  0
  5  2  2  0
  7  3  1  0
  9  8  2  0
 10  9  1  0
 11  9  1  0
 12 11  1  0
 13 11  2  0
 14 13  1  0
 14  1  2  3
 15 13  1  0
 16 15  1  0
 17 15  2  0
 17  8  1  0
 18  6  2  0
 19  6  1  0
 20  6  1  0
 21 16  1  0
 21  6  1  0
  5 22  1  0
  5 23  1  0
  7 24  1  0
 10 25  1  0
 10 26  1  0
 10 27  1  0
 12 28  1  0
 14 29  1  0
 16 30  1  0
 16 31  1  0
 17 32  1  0
 19 33  1  0
 20 34  1  0
M  END
