
     RDKit          3D

 35 37  0  0  0  0  0  0  0  0999 V2000
   42.8530   -4.9144   29.0057 C   0  0  0  0  0  0  0  0  0  0  0  0
   42.9769   -2.6895   32.1334 C   0  0  0  0  0  0  0  0  0  0  0  0
   43.2331   -1.4484   31.5717 O   0  0  0  0  0  0  0  0  0  0  0  0
   42.8982   -2.7522   33.5198 C   0  0  0  0  0  0  0  0  0  0  0  0
   42.5999   -3.9525   34.1535 C   0  0  0  0  0  0  0  0  0  0  0  0
   42.4031   -5.1158   33.4048 C   0  0  0  0  0  0  0  0  0  0  0  0
   42.4853   -5.0640   32.0076 C   0  0  0  0  0  0  0  0  0  0  0  0
   42.7837   -3.8555   31.3521 C   0  0  0  0  0  0  0  0  0  0  0  0
   43.3497   -4.1079   25.3813 C   0  0  0  0  0  0  0  0  0  0  0  0
   42.5156   -5.3195   23.4420 N   0  0  0  0  0  0  0  0  0  0  0  0
   43.4501   -2.7030   25.5857 C   0  0  0  0  0  0  0  0  0  0  0  0
   44.6664   -4.4028   23.2637 N   0  0  0  0  0  0  0  0  0  0  0  0
   43.3821   -2.1601   26.8602 C   0  0  0  0  0  0  0  0  0  0  0  0
   43.1091   -2.6830   29.1789 N   0  0  0  0  0  0  0  0  0  0  0  0
   43.1776   -3.0270   27.9098 C   0  0  0  0  0  0  0  0  0  0  0  0
   43.0412   -4.3681   27.7531 C   0  0  0  0  0  0  0  0  0  0  0  0
   43.1306   -4.9567   26.5019 C   0  0  0  0  0  0  0  0  0  0  0  0
   43.4703   -4.6399   24.0060 C   0  0  0  0  0  0  0  0  0  0  0  0
   42.8990   -3.8197   29.8799 C   0  0  0  0  0  0  0  0  0  0  0  0
   42.0643   -6.4024   34.0977 C   0  0  0  0  0  0  0  0  0  0  0  0
   43.2245   -1.1869   34.5706 Br  0  0  0  0  0  0  0  0  0  0  0  0
   42.7166   -5.9619   29.2353 H   0  0  0  0  0  0  0  0  0  0  0  0
   42.5318   -3.9821   35.2342 H   0  0  0  0  0  0  0  0  0  0  0  0
   42.3229   -5.9741   31.4475 H   0  0  0  0  0  0  0  0  0  0  0  0
   42.6371   -5.6872   22.4717 H   0  0  0  0  0  0  0  0  0  0  0  0
   41.5984   -5.5242   23.8865 H   0  0  0  0  0  0  0  0  0  0  0  0
   43.5569   -2.0037   24.7717 H   0  0  0  0  0  0  0  0  0  0  0  0
   44.7488   -4.7525   22.2830 H   0  0  0  0  0  0  0  0  0  0  0  0
   45.5558   -4.1135   23.7246 H   0  0  0  0  0  0  0  0  0  0  0  0
   43.4717   -1.0924   27.0180 H   0  0  0  0  0  0  0  0  0  0  0  0
   43.2799   -1.7022   29.4635 H   0  0  0  0  0  0  0  0  0  0  0  0
   43.0488   -6.0297   26.4397 H   0  0  0  0  0  0  0  0  0  0  0  0
   41.4443   -6.1869   34.9927 H   0  0  0  0  0  0  0  0  0  0  0  0
   42.9870   -6.9335   34.4154 H   0  0  0  0  0  0  0  0  0  0  0  0
   41.4990   -7.0768   33.4196 H   0  0  0  0  0  0  0  0  0  0  0  0
  3  2  1  0
  4  2  2  0
  5  4  1  0
  6  5  2  0
  7  6  1  0
  8  7  2  0
  8  2  1  0
 11  9  1  0
 13 11  2  0
 15 14  1  0
 15 13  1  0
 16  1  1  0
 16 15  2  0
 17 16  1  0
 17  9  2  0
 18 12  1  0
 18 10  2  0
 18  9  1  0
 19 14  1  0
 19  8  1  0
 19  1  2  0
 20  6  1  0
 21  4  1  0
  1 22  1  0
  5 23  1  0
  7 24  1  0
 10 25  1  0
 10 26  1  0
 11 27  1  0
 12 28  1  0
 12 29  1  0
 13 30  1  0
 14 31  1  0
 17 32  1  0
 20 33  1  0
 20 34  1  0
 20 35  1  0
M  CHG  2   3  -1  10   1
M  END
