
     RDKit          3D

 24 25  0  0  0  0  0  0  0  0999 V2000
   17.2463  104.6518   55.0389 Cl  0  0  0  0  0  0  0  0  0  0  0  0
   15.5959  111.2005   47.2131 Cl  0  0  0  0  0  0  0  0  0  0  0  0
   16.8983  105.9924   46.3932 Cl  0  0  0  0  0  0  0  0  0  0  0  0
   15.6906  104.7787   52.8035 C   0  0  0  0  0  0  0  0  0  0  0  0
   16.9674  104.9675   53.3419 C   0  0  0  0  0  0  0  0  0  0  0  0
   18.0267  105.3904   52.5307 C   0  0  0  0  0  0  0  0  0  0  0  0
   17.8136  105.6271   51.1724 C   0  0  0  0  0  0  0  0  0  0  0  0
   16.5367  105.4329   50.6326 C   0  0  0  0  0  0  0  0  0  0  0  0
   15.4734  105.0174   51.4441 C   0  0  0  0  0  0  0  0  0  0  0  0
   16.3040  105.6890   49.2887 O   0  0  0  0  0  0  0  0  0  0  0  0
   16.0948  106.9840   48.8162 C   0  0  0  0  0  0  0  0  0  0  0  0
   16.3434  107.2615   47.4638 C   0  0  0  0  0  0  0  0  0  0  0  0
   16.2035  108.5594   46.9744 C   0  0  0  0  0  0  0  0  0  0  0  0
   15.7709  109.5739   47.8293 C   0  0  0  0  0  0  0  0  0  0  0  0
   15.4964  109.3037   49.1741 C   0  0  0  0  0  0  0  0  0  0  0  0
   15.6579  108.0147   49.6719 C   0  0  0  0  0  0  0  0  0  0  0  0
   14.2077  104.8631   50.8867 O   0  0  0  0  0  0  0  0  0  0  0  0
   14.8753  104.4539   53.4376 H   0  0  0  0  0  0  0  0  0  0  0  0
   19.0132  105.5346   52.9524 H   0  0  0  0  0  0  0  0  0  0  0  0
   18.6296  105.9593   50.5433 H   0  0  0  0  0  0  0  0  0  0  0  0
   16.4195  108.7767   45.9357 H   0  0  0  0  0  0  0  0  0  0  0  0
   15.1641  110.0963   49.8325 H   0  0  0  0  0  0  0  0  0  0  0  0
   15.4435  107.8314   50.7163 H   0  0  0  0  0  0  0  0  0  0  0  0
   13.3784  105.2149   51.3507 H   0  0  0  0  0  0  0  0  0  0  0  0
  5  4  2  0
  5  1  1  0
  6  5  1  0
  7  6  2  0
  8  7  1  0
  9  8  2  0
  9  4  1  0
 10  8  1  0
 11 10  1  0
 12  3  1  0
 12 11  2  0
 13 12  1  0
 14  2  1  0
 14 13  2  0
 15 14  1  0
 16 15  2  0
 16 11  1  0
 17  9  1  0
  4 18  1  0
  6 19  1  0
  7 20  1  0
 13 21  1  0
 15 22  1  0
 16 23  1  0
 17 24  1  0
M  END
