
     RDKit          3D

 25 26  0  0  0  0  0  0  0  0999 V2000
  -31.9975   24.5223   27.2140 Cl  0  0  0  0  0  0  0  0  0  0  0  0
  -34.0595   25.2811   25.6104 C   0  0  0  0  0  0  0  0  0  0  0  0
  -32.8297   24.6271   25.6808 C   0  0  0  0  0  0  0  0  0  0  0  0
  -32.2620   24.0625   24.5330 C   0  0  0  0  0  0  0  0  0  0  0  0
  -32.9168   24.1694   23.3060 C   0  0  0  0  0  0  0  0  0  0  0  0
  -34.1444   24.8256   23.2299 C   0  0  0  0  0  0  0  0  0  0  0  0
  -34.7293   25.3748   24.3851 C   0  0  0  0  0  0  0  0  0  0  0  0
  -36.0124   26.0733   24.3156 C   0  0  0  0  0  0  0  0  0  0  0  0
  -37.2007   25.4911   24.5648 N   0  0  0  0  0  0  0  0  0  0  0  0
  -38.1168   26.4454   24.3565 C   0  0  0  0  0  0  0  0  0  0  0  0
  -37.4520   27.6101   23.9909 C   0  0  0  0  0  0  0  0  0  0  0  0
  -36.1265   27.3709   23.9653 N   0  0  0  0  0  0  0  0  0  0  0  0
  -38.0247   28.9237   23.6400 C   0  0  0  0  0  0  0  0  0  0  0  0
  -39.3715   29.1774   23.8096 O   0  0  0  0  0  0  0  0  0  0  0  0
  -37.2897   29.8208   23.1512 O   0  0  0  0  0  0  0  0  0  0  0  0
  -39.5917   26.2161   24.5035 C   0  0  0  0  0  0  0  0  0  0  0  0
  -34.4850   25.7063   26.5113 H   0  0  0  0  0  0  0  0  0  0  0  0
  -31.3079   23.5542   24.5902 H   0  0  0  0  0  0  0  0  0  0  0  0
  -32.4706   23.7466   22.4150 H   0  0  0  0  0  0  0  0  0  0  0  0
  -34.6130   24.9082   22.2603 H   0  0  0  0  0  0  0  0  0  0  0  0
  -37.3957   24.5114   24.8663 H   0  0  0  0  0  0  0  0  0  0  0  0
  -39.9980   28.4604   24.1558 H   0  0  0  0  0  0  0  0  0  0  0  0
  -39.7866   25.3487   25.1686 H   0  0  0  0  0  0  0  0  0  0  0  0
  -40.0368   26.0128   23.5075 H   0  0  0  0  0  0  0  0  0  0  0  0
  -40.0677   27.1169   24.9435 H   0  0  0  0  0  0  0  0  0  0  0  0
  3  2  2  0
  3  1  1  0
  4  3  1  0
  5  4  2  0
  6  5  1  0
  7  6  2  0
  7  2  1  0
  8  7  1  0
  9  8  1  0
 10  9  1  0
 11 10  2  0
 12 11  1  0
 12  8  2  0
 13 11  1  0
 14 13  1  0
 15 13  2  0
 16 10  1  0
  2 17  1  0
  4 18  1  0
  5 19  1  0
  6 20  1  0
  9 21  1  0
 14 22  1  0
 16 23  1  0
 16 24  1  0
 16 25  1  0
M  END
