
     RDKit          3D

 50 50  0  0  0  0  0  0  0  0999 V2000
   21.7474  -44.8472   18.1587 P   0  0  0  0  0  0  0  0  0  0  0  0
   23.4188  -45.4027   15.6166 P   0  0  0  0  0  0  0  0  0  0  0  0
   23.2606  -44.5340   17.2242 C   0  0  0  0  0  0  0  0  0  0  0  0
   25.4113  -43.2337   17.0865 N   0  0  0  0  0  0  0  0  0  0  0  0
   21.1236  -46.2130   17.8852 O   0  0  0  0  0  0  0  0  0  0  0  0
   24.2397  -43.5704   17.8907 C   0  0  0  0  0  0  0  0  0  0  0  0
   22.0220  -44.6542   19.8282 O   0  0  0  0  0  0  0  0  0  0  0  0
   26.4526  -44.1093   17.1092 C   0  0  0  0  0  0  0  0  0  0  0  0
   20.7756  -43.5807   17.5700 O   0  0  0  0  0  0  0  0  0  0  0  0
   27.6594  -43.7935   16.5070 C   0  0  0  0  0  0  0  0  0  0  0  0
   22.7553  -46.7796   15.6325 O   0  0  0  0  0  0  0  0  0  0  0  0
   27.8153  -42.5614   15.8952 C   0  0  0  0  0  0  0  0  0  0  0  0
   25.0346  -45.5435   15.1231 O   0  0  0  0  0  0  0  0  0  0  0  0
   26.7516  -41.6452   15.8865 C   0  0  0  0  0  0  0  0  0  0  0  0
   22.5936  -44.3853   14.5223 O   0  0  0  0  0  0  0  0  0  0  0  0
   25.5398  -42.0107   16.4856 C   0  0  0  0  0  0  0  0  0  0  0  0
   26.8759  -40.3772   15.3158 O   0  0  0  0  0  0  0  0  0  0  0  0
   27.7568  -39.3844   15.8274 C   0  0  0  0  0  0  0  0  0  0  0  0
   27.4508  -38.0526   15.1835 C   0  0  0  0  0  0  0  0  0  0  0  0
   28.7631  -37.3632   14.7746 C   0  0  0  0  0  0  0  0  0  0  0  0
   28.5618  -35.9868   14.1359 C   0  0  0  0  0  0  0  0  0  0  0  0
   27.7266  -35.0504   15.0203 C   0  0  0  0  0  0  0  0  0  0  0  0
   26.8327  -34.1439   14.1928 C   0  0  0  0  0  0  0  0  0  0  0  0
   27.6668  -33.0867   13.4819 C   0  0  0  0  0  0  0  0  0  0  0  0
   22.8471  -43.6641   16.6835 H   0  0  0  0  0  0  0  0  0  0  0  0
   24.5768  -44.0570   18.8336 H   0  0  0  0  0  0  0  0  0  0  0  0
   23.7414  -42.6356   18.2547 H   0  0  0  0  0  0  0  0  0  0  0  0
   21.1175  -44.6365   20.2311 H   0  0  0  0  0  0  0  0  0  0  0  0
   26.3598  -45.0675   17.6090 H   0  0  0  0  0  0  0  0  0  0  0  0
   20.5245  -43.0551   18.3714 H   0  0  0  0  0  0  0  0  0  0  0  0
   28.4777  -44.5020   16.5229 H   0  0  0  0  0  0  0  0  0  0  0  0
   28.7650  -42.3479   15.4276 H   0  0  0  0  0  0  0  0  0  0  0  0
   25.0943  -45.0030   14.2956 H   0  0  0  0  0  0  0  0  0  0  0  0
   21.6327  -44.5754   14.6713 H   0  0  0  0  0  0  0  0  0  0  0  0
   24.7189  -41.3035   16.5001 H   0  0  0  0  0  0  0  0  0  0  0  0
   28.8074  -39.6896   15.6258 H   0  0  0  0  0  0  0  0  0  0  0  0
   27.6029  -39.2613   16.9217 H   0  0  0  0  0  0  0  0  0  0  0  0
   26.7953  -38.2610   14.3153 H   0  0  0  0  0  0  0  0  0  0  0  0
   26.8954  -37.4100   15.9014 H   0  0  0  0  0  0  0  0  0  0  0  0
   29.4215  -37.2468   15.6637 H   0  0  0  0  0  0  0  0  0  0  0  0
   29.2956  -38.0110   14.0431 H   0  0  0  0  0  0  0  0  0  0  0  0
   29.5531  -35.5175   13.9527 H   0  0  0  0  0  0  0  0  0  0  0  0
   28.0812  -36.1388   13.1439 H   0  0  0  0  0  0  0  0  0  0  0  0
   27.0266  -35.6395   15.6502 H   0  0  0  0  0  0  0  0  0  0  0  0
   28.3951  -34.4528   15.6792 H   0  0  0  0  0  0  0  0  0  0  0  0
   26.0894  -33.6368   14.8469 H   0  0  0  0  0  0  0  0  0  0  0  0
   26.2875  -34.7474   13.4347 H   0  0  0  0  0  0  0  0  0  0  0  0
   28.1994  -32.4487   14.2194 H   0  0  0  0  0  0  0  0  0  0  0  0
   28.4075  -33.5655   12.8062 H   0  0  0  0  0  0  0  0  0  0  0  0
   27.0015  -32.4392   12.8727 H   0  0  0  0  0  0  0  0  0  0  0  0
  3  1  1  0
  3  2  1  0
  5  1  2  0
  3  6  1  0
  6  4  1  0
  7  1  1  0
  8  4  2  0
  9  1  1  0
 10  8  1  0
 11  2  2  0
 12 10  2  0
 13  2  1  0
 14 12  1  0
 15  2  1  0
 16 14  2  0
 16  4  1  0
 17 14  1  0
 18 17  1  0
 19 18  1  0
 20 19  1  0
 21 20  1  0
 22 21  1  0
 23 22  1  0
 24 23  1  0
  3 25  1  0
  6 26  1  0
  6 27  1  0
  7 28  1  0
  8 29  1  0
  9 30  1  0
 10 31  1  0
 12 32  1  0
 13 33  1  0
 15 34  1  0
 16 35  1  0
 18 36  1  0
 18 37  1  0
 19 38  1  0
 19 39  1  0
 20 40  1  0
 20 41  1  0
 21 42  1  0
 21 43  1  0
 22 44  1  0
 22 45  1  0
 23 46  1  0
 23 47  1  0
 24 48  1  0
 24 49  1  0
 24 50  1  0
M  CHG  1   4   1
M  END
