
     RDKit          3D

 50 50  0  0  0  0  0  0  0  0999 V2000
   22.0553  -45.0796   18.0242 P   0  0  0  0  0  0  0  0  0  0  0  0
   23.6911  -45.5709   15.4460 P   0  0  0  0  0  0  0  0  0  0  0  0
   23.5685  -44.7664   17.0897 C   0  0  0  0  0  0  0  0  0  0  0  0
   25.7510  -43.5170   16.9865 N   0  0  0  0  0  0  0  0  0  0  0  0
   21.4315  -46.4454   17.7507 O   0  0  0  0  0  0  0  0  0  0  0  0
   24.5776  -43.8569   17.7867 C   0  0  0  0  0  0  0  0  0  0  0  0
   22.3299  -44.8866   19.6937 O   0  0  0  0  0  0  0  0  0  0  0  0
   26.7694  -44.4191   16.9632 C   0  0  0  0  0  0  0  0  0  0  0  0
   21.0835  -43.8131   17.4355 O   0  0  0  0  0  0  0  0  0  0  0  0
   27.9791  -44.1093   16.3636 C   0  0  0  0  0  0  0  0  0  0  0  0
   22.9923  -46.9298   15.4107 O   0  0  0  0  0  0  0  0  0  0  0  0
   28.1619  -42.8572   15.8022 C   0  0  0  0  0  0  0  0  0  0  0  0
   25.2987  -45.7323   14.9322 O   0  0  0  0  0  0  0  0  0  0  0  0
   27.1223  -41.9144   15.8413 C   0  0  0  0  0  0  0  0  0  0  0  0
   22.8837  -44.4879   14.4025 O   0  0  0  0  0  0  0  0  0  0  0  0
   25.9063  -42.2736   16.4358 C   0  0  0  0  0  0  0  0  0  0  0  0
   27.2748  -40.6273   15.3227 O   0  0  0  0  0  0  0  0  0  0  0  0
   28.5065  -39.9174   15.3716 C   0  0  0  0  0  0  0  0  0  0  0  0
   28.2749  -38.4714   15.0006 C   0  0  0  0  0  0  0  0  0  0  0  0
   28.4659  -37.5832   16.2411 C   0  0  0  0  0  0  0  0  0  0  0  0
   28.2238  -36.0953   15.9755 C   0  0  0  0  0  0  0  0  0  0  0  0
   28.9793  -35.5938   14.7369 C   0  0  0  0  0  0  0  0  0  0  0  0
   29.4687  -34.1677   14.9155 C   0  0  0  0  0  0  0  0  0  0  0  0
   30.8717  -34.1616   15.5074 C   0  0  0  0  0  0  0  0  0  0  0  0
   23.1733  -43.8644   16.5895 H   0  0  0  0  0  0  0  0  0  0  0  0
   24.9096  -44.3910   18.7054 H   0  0  0  0  0  0  0  0  0  0  0  0
   24.1067  -42.9257   18.1938 H   0  0  0  0  0  0  0  0  0  0  0  0
   21.4254  -44.8689   20.0965 H   0  0  0  0  0  0  0  0  0  0  0  0
   26.6559  -45.3946   17.4235 H   0  0  0  0  0  0  0  0  0  0  0  0
   21.6723  -43.0164   17.4337 H   0  0  0  0  0  0  0  0  0  0  0  0
   28.7789  -44.8386   16.3426 H   0  0  0  0  0  0  0  0  0  0  0  0
   29.1130  -42.6487   15.3352 H   0  0  0  0  0  0  0  0  0  0  0  0
   25.8294  -45.2308   15.6012 H   0  0  0  0  0  0  0  0  0  0  0  0
   21.9785  -44.8730   14.2850 H   0  0  0  0  0  0  0  0  0  0  0  0
   25.1041  -41.5469   16.4873 H   0  0  0  0  0  0  0  0  0  0  0  0
   29.2304  -40.3939   14.6742 H   0  0  0  0  0  0  0  0  0  0  0  0
   28.9154  -39.9280   16.4054 H   0  0  0  0  0  0  0  0  0  0  0  0
   28.9943  -38.2297   14.1938 H   0  0  0  0  0  0  0  0  0  0  0  0
   27.2429  -38.3487   14.6045 H   0  0  0  0  0  0  0  0  0  0  0  0
   27.7789  -37.9133   17.0514 H   0  0  0  0  0  0  0  0  0  0  0  0
   29.5079  -37.7046   16.6121 H   0  0  0  0  0  0  0  0  0  0  0  0
   27.1357  -35.9201   15.8271 H   0  0  0  0  0  0  0  0  0  0  0  0
   28.5264  -35.5331   16.8868 H   0  0  0  0  0  0  0  0  0  0  0  0
   29.9022  -36.1921   14.5812 H   0  0  0  0  0  0  0  0  0  0  0  0
   28.3324  -35.6805   13.8357 H   0  0  0  0  0  0  0  0  0  0  0  0
   28.7879  -33.6106   15.5964 H   0  0  0  0  0  0  0  0  0  0  0  0
   29.4873  -33.6526   13.9302 H   0  0  0  0  0  0  0  0  0  0  0  0
   30.8754  -34.6443   16.5081 H   0  0  0  0  0  0  0  0  0  0  0  0
   31.5785  -34.6968   14.8377 H   0  0  0  0  0  0  0  0  0  0  0  0
   31.2201  -33.1135   15.6215 H   0  0  0  0  0  0  0  0  0  0  0  0
  3  1  1  0
  3  2  1  0
  5  1  2  0
  3  6  1  0
  6  4  1  0
  7  1  1  0
  8  4  2  0
  9  1  1  0
 10  8  1  0
 11  2  2  0
 12 10  2  0
 13  2  1  0
 14 12  1  0
 15  2  1  0
 16 14  2  0
 16  4  1  0
 17 14  1  0
 18 17  1  0
 19 18  1  0
 20 19  1  0
 21 20  1  0
 22 21  1  0
 23 22  1  0
 24 23  1  0
  3 25  1  0
  6 26  1  0
  6 27  1  0
  7 28  1  0
  8 29  1  0
  9 30  1  0
 10 31  1  0
 12 32  1  0
 13 33  1  0
 15 34  1  0
 16 35  1  0
 18 36  1  0
 18 37  1  0
 19 38  1  0
 19 39  1  0
 20 40  1  0
 20 41  1  0
 21 42  1  0
 21 43  1  0
 22 44  1  0
 22 45  1  0
 23 46  1  0
 23 47  1  0
 24 48  1  0
 24 49  1  0
 24 50  1  0
M  CHG  1   4   1
M  END
