
     RDKit          3D

 44 47  0  0  0  0  0  0  0  0999 V2000
   51.8311    9.8321    7.1427 C   0  0  0  0  0  0  0  0  0  0  0  0
   52.7119   11.0796    9.4016 N   0  0  0  0  0  0  0  0  0  0  0  0
   51.4262    9.2410    6.1039 O   0  0  0  0  0  0  0  0  0  0  0  0
   54.8879    9.8396    9.7098 S   0  0  0  0  0  0  0  0  0  0  0  0
   53.0625    9.4582    7.6946 C   0  0  0  0  0  0  0  0  0  0  0  0
   50.8342   12.3481    9.4345 O   0  0  0  0  0  0  0  0  0  0  0  0
   53.4707   10.1128    8.8438 C   0  0  0  0  0  0  0  0  0  0  0  0
   54.7035   12.0846   12.9004 O   0  0  0  0  0  0  0  0  0  0  0  0
   49.7349   11.1550    7.2083 C   0  0  0  0  0  0  0  0  0  0  0  0
   56.5395   10.9093   12.1455 O   0  0  0  0  0  0  0  0  0  0  0  0
   51.5278   11.4560    8.8651 C   0  0  0  0  0  0  0  0  0  0  0  0
   53.2593   11.5975   10.5207 C   0  0  0  0  0  0  0  0  0  0  0  0
   51.0748   10.8296    7.7274 N   0  0  0  0  0  0  0  0  0  0  0  0
   55.2383   11.3857   12.0008 C   0  0  0  0  0  0  0  0  0  0  0  0
   54.4742   11.0296   10.8357 C   0  0  0  0  0  0  0  0  0  0  0  0
   55.3224    9.0124   16.6347 C   0  0  0  0  0  0  0  0  0  0  0  0
   46.6890    8.7910    9.1568 C   0  0  0  0  0  0  0  0  0  0  0  0
   57.2712   11.0522   13.3596 C   0  0  0  0  0  0  0  0  0  0  0  0
   56.3766    8.4099   15.9450 C   0  0  0  0  0  0  0  0  0  0  0  0
   46.5302    9.1964    7.8295 C   0  0  0  0  0  0  0  0  0  0  0  0
   57.0088    9.0904   14.8998 C   0  0  0  0  0  0  0  0  0  0  0  0
   47.5175    9.9632    7.2031 C   0  0  0  0  0  0  0  0  0  0  0  0
   55.5203   10.9746   15.2272 C   0  0  0  0  0  0  0  0  0  0  0  0
   48.8178    9.9188    9.2465 C   0  0  0  0  0  0  0  0  0  0  0  0
   54.8974   10.2940   16.2777 C   0  0  0  0  0  0  0  0  0  0  0  0
   47.8322    9.1546    9.8640 C   0  0  0  0  0  0  0  0  0  0  0  0
   56.5912   10.3797   14.5305 C   0  0  0  0  0  0  0  0  0  0  0  0
   48.6819   10.3206    7.8989 C   0  0  0  0  0  0  0  0  0  0  0  0
   53.6693    8.6796    7.2488 H   0  0  0  0  0  0  0  0  0  0  0  0
   49.4995   12.2311    7.3570 H   0  0  0  0  0  0  0  0  0  0  0  0
   49.6998   10.9922    6.1084 H   0  0  0  0  0  0  0  0  0  0  0  0
   52.7859   12.3757   11.1083 H   0  0  0  0  0  0  0  0  0  0  0  0
   54.8339    8.4858   17.4444 H   0  0  0  0  0  0  0  0  0  0  0  0
   45.9216    8.1976    9.6368 H   0  0  0  0  0  0  0  0  0  0  0  0
   58.2657   10.5791   13.2187 H   0  0  0  0  0  0  0  0  0  0  0  0
   57.4414   12.1290   13.5800 H   0  0  0  0  0  0  0  0  0  0  0  0
   56.7046    7.4158   16.2199 H   0  0  0  0  0  0  0  0  0  0  0  0
   45.6377    8.9176    7.2843 H   0  0  0  0  0  0  0  0  0  0  0  0
   57.8213    8.6077   14.3705 H   0  0  0  0  0  0  0  0  0  0  0  0
   47.3748   10.2716    6.1748 H   0  0  0  0  0  0  0  0  0  0  0  0
   55.1468   11.9528   14.9572 H   0  0  0  0  0  0  0  0  0  0  0  0
   49.6777   10.1661    9.8431 H   0  0  0  0  0  0  0  0  0  0  0  0
   54.0755   10.7567   16.8087 H   0  0  0  0  0  0  0  0  0  0  0  0
   47.9520    8.8437   10.8941 H   0  0  0  0  0  0  0  0  0  0  0  0
  3  1  2  0
  5  1  1  0
  7  5  2  0
  7  2  1  0
  7  4  1  0
 11  2  1  0
 11  6  2  0
 12  2  1  0
 13  9  1  0
 13  1  1  0
 13 11  1  0
 14 10  1  0
 14  8  2  0
 15 12  2  0
 15  4  1  0
 15 14  1  0
 18 10  1  0
 19 16  2  0
 20 17  2  0
 21 19  1  0
 22 20  1  0
 25 23  2  0
 25 16  1  0
 26 17  1  0
 26 24  2  0
 27 23  1  0
 27 21  2  0
 27 18  1  0
 28 22  2  0
 28 24  1  0
 28  9  1  0
  5 29  1  0
  9 30  1  0
  9 31  1  0
 12 32  1  0
 16 33  1  0
 17 34  1  0
 18 35  1  0
 18 36  1  0
 19 37  1  0
 20 38  1  0
 21 39  1  0
 22 40  1  0
 23 41  1  0
 24 42  1  0
 25 43  1  0
 26 44  1  0
M  END
