
     RDKit          3D

 44 47  0  0  0  0  0  0  0  0999 V2000
   51.2946    9.0286    7.4012 C   0  0  0  0  0  0  0  0  0  0  0  0
   52.1234    9.7854    9.8861 N   0  0  0  0  0  0  0  0  0  0  0  0
   50.9189    8.6650    6.2527 O   0  0  0  0  0  0  0  0  0  0  0  0
   54.5906    9.3193    9.6343 S   0  0  0  0  0  0  0  0  0  0  0  0
   52.6553    8.9485    7.7223 C   0  0  0  0  0  0  0  0  0  0  0  0
   49.9846   10.2785   10.4505 O   0  0  0  0  0  0  0  0  0  0  0  0
   53.0334    9.3379    8.9955 C   0  0  0  0  0  0  0  0  0  0  0  0
   54.3243   10.7260   13.2781 O   0  0  0  0  0  0  0  0  0  0  0  0
   48.9397    9.4871    8.0277 C   0  0  0  0  0  0  0  0  0  0  0  0
   56.1545    9.7039   12.3149 O   0  0  0  0  0  0  0  0  0  0  0  0
   50.8090    9.8792    9.5775 C   0  0  0  0  0  0  0  0  0  0  0  0
   52.6683   10.1081   11.0774 C   0  0  0  0  0  0  0  0  0  0  0  0
   50.3823    9.4966    8.3272 N   0  0  0  0  0  0  0  0  0  0  0  0
   54.8368   10.1552   12.2805 C   0  0  0  0  0  0  0  0  0  0  0  0
   54.0322    9.9177   11.1124 C   0  0  0  0  0  0  0  0  0  0  0  0
   55.8431    7.1235   16.6592 C   0  0  0  0  0  0  0  0  0  0  0  0
   47.1038    5.7930    9.3105 C   0  0  0  0  0  0  0  0  0  0  0  0
   56.9695    9.8239   13.4773 C   0  0  0  0  0  0  0  0  0  0  0  0
   57.0854    7.7612   16.6707 C   0  0  0  0  0  0  0  0  0  0  0  0
   46.7905    6.3452    8.0663 C   0  0  0  0  0  0  0  0  0  0  0  0
   57.4274    8.6462   15.6436 C   0  0  0  0  0  0  0  0  0  0  0  0
   47.3855    7.5421    7.6557 C   0  0  0  0  0  0  0  0  0  0  0  0
   55.2848    8.2444   14.5849 C   0  0  0  0  0  0  0  0  0  0  0  0
   48.6029    7.6296    9.7481 C   0  0  0  0  0  0  0  0  0  0  0  0
   54.9436    7.3675   15.6190 C   0  0  0  0  0  0  0  0  0  0  0  0
   48.0085    6.4373   10.1506 C   0  0  0  0  0  0  0  0  0  0  0  0
   56.5321    8.9004   14.5915 C   0  0  0  0  0  0  0  0  0  0  0  0
   48.3119    8.1914    8.4849 C   0  0  0  0  0  0  0  0  0  0  0  0
   53.3846    8.5856    7.0085 H   0  0  0  0  0  0  0  0  0  0  0  0
   48.4228   10.3357    8.5259 H   0  0  0  0  0  0  0  0  0  0  0  0
   48.7732    9.6361    6.9379 H   0  0  0  0  0  0  0  0  0  0  0  0
   52.0879   10.4744   11.9165 H   0  0  0  0  0  0  0  0  0  0  0  0
   55.5782    6.4393   17.4549 H   0  0  0  0  0  0  0  0  0  0  0  0
   46.6403    4.8664    9.6234 H   0  0  0  0  0  0  0  0  0  0  0  0
   58.0100    9.5579   13.1959 H   0  0  0  0  0  0  0  0  0  0  0  0
   56.9780   10.8780   13.8321 H   0  0  0  0  0  0  0  0  0  0  0  0
   57.7836    7.5704   17.4754 H   0  0  0  0  0  0  0  0  0  0  0  0
   46.0823    5.8453    7.4181 H   0  0  0  0  0  0  0  0  0  0  0  0
   58.3970    9.1288   15.6635 H   0  0  0  0  0  0  0  0  0  0  0  0
   47.1270    7.9570    6.6892 H   0  0  0  0  0  0  0  0  0  0  0  0
   54.5774    8.3876   13.7797 H   0  0  0  0  0  0  0  0  0  0  0  0
   49.2941    8.0786   10.4389 H   0  0  0  0  0  0  0  0  0  0  0  0
   53.9839    6.8669   15.6078 H   0  0  0  0  0  0  0  0  0  0  0  0
   48.2469    6.0109   11.1167 H   0  0  0  0  0  0  0  0  0  0  0  0
  3  1  2  0
  5  1  1  0
  7  5  2  0
  7  2  1  0
  7  4  1  0
 11  2  1  0
 11  6  2  0
 12  2  1  0
 13  9  1  0
 13  1  1  0
 13 11  1  0
 14 10  1  0
 14  8  2  0
 15 12  2  0
 15  4  1  0
 15 14  1  0
 18 10  1  0
 19 16  2  0
 20 17  2  0
 21 19  1  0
 22 20  1  0
 25 23  2  0
 25 16  1  0
 26 17  1  0
 26 24  2  0
 27 23  1  0
 27 21  2  0
 27 18  1  0
 28 22  2  0
 28 24  1  0
 28  9  1  0
  5 29  1  0
  9 30  1  0
  9 31  1  0
 12 32  1  0
 16 33  1  0
 17 34  1  0
 18 35  1  0
 18 36  1  0
 19 37  1  0
 20 38  1  0
 21 39  1  0
 22 40  1  0
 23 41  1  0
 24 42  1  0
 25 43  1  0
 26 44  1  0
M  END
