
     RDKit          3D

 49 51  0  0  0  0  0  0  0  0999 V2000
  -11.1596    2.6354    3.0312 P   0  0  2  0  0  0  0  0  0  0  0  0
   -8.2392    2.2987    3.2867 P   0  0  2  0  0  0  0  0  0  0  0  0
   -7.0440    2.0580    0.7877 P   0  0  0  0  0  0  0  0  0  0  0  0
  -12.8005    1.2023    1.7329 C   0  0  0  0  0  0  0  0  0  0  0  0
  -12.0311    1.2086    2.9027 O   0  0  0  0  0  0  0  0  0  0  0  0
  -13.0411   -0.2628    1.3627 C   0  0  1  0  0  0  0  0  0  0  0  0
  -11.8299   -0.9833    1.3082 O   0  0  0  0  0  0  0  0  0  0  0  0
  -13.9148   -1.0100    2.3740 C   0  0  1  0  0  0  0  0  0  0  0  0
  -15.2909   -0.7805    2.1783 O   0  0  0  0  0  0  0  0  0  0  0  0
  -13.4927   -2.4581    2.1524 C   0  0  1  0  0  0  0  0  0  0  0  0
  -14.4848   -3.2252    1.5130 O   0  0  0  0  0  0  0  0  0  0  0  0
  -12.2426   -2.3309    1.2619 C   0  0  2  0  0  0  0  0  0  0  0  0
   -9.0292   -4.0695    4.9547 N   0  0  0  0  0  0  0  0  0  0  0  0
  -10.9068    2.8365    4.5027 O   0  0  0  0  0  0  0  0  0  0  0  0
   -8.3299    1.0225    4.0946 O   0  0  0  0  0  0  0  0  0  0  0  0
   -8.1540    2.8610    0.1547 O   0  0  0  0  0  0  0  0  0  0  0  0
  -10.1068   -3.2339    5.0930 C   0  0  0  0  0  0  0  0  0  0  0  0
  -12.0241    3.9277    2.3849 O   0  0  0  0  0  0  0  0  0  0  0  0
   -8.2544    3.6467    4.2848 O   0  0  0  0  0  0  0  0  0  0  0  0
   -5.5723    2.4477    0.0877 O   0  0  0  0  0  0  0  0  0  0  0  0
   -9.6127    2.4357    2.1330 C   0  0  0  0  0  0  0  0  0  0  0  0
  -10.8658   -2.8928    4.0110 N   0  0  0  0  0  0  0  0  0  0  0  0
   -6.8115    2.4313    2.4077 O   0  0  0  0  0  0  0  0  0  0  0  0
   -7.3193    0.4120    0.6000 O   0  0  0  0  0  0  0  0  0  0  0  0
  -10.5210   -3.4135    2.8146 C   0  0  0  0  0  0  0  0  0  0  0  0
   -9.4637   -4.2373    2.6489 C   0  0  0  0  0  0  0  0  0  0  0  0
   -8.6867   -4.5820    3.7372 C   0  0  0  0  0  0  0  0  0  0  0  0
   -7.5625   -5.4408    3.6155 N   0  0  0  0  0  0  0  0  0  0  0  0
   -9.3392   -4.5967    1.3580 N   0  0  0  0  0  0  0  0  0  0  0  0
  -10.3786   -3.9484    0.7681 C   0  0  0  0  0  0  0  0  0  0  0  0
  -11.1348   -3.2208    1.6393 N   0  0  0  0  0  0  0  0  0  0  0  0
  -12.2895    1.6918    0.8720 H   0  0  0  0  0  0  0  0  0  0  0  0
  -13.7756    1.7035    1.9198 H   0  0  0  0  0  0  0  0  0  0  0  0
  -13.5060   -0.2714    0.3474 H   0  0  0  0  0  0  0  0  0  0  0  0
  -13.6570   -0.7309    3.4186 H   0  0  0  0  0  0  0  0  0  0  0  0
  -15.7954   -1.6076    2.3903 H   0  0  0  0  0  0  0  0  0  0  0  0
  -13.2557   -2.9340    3.1271 H   0  0  0  0  0  0  0  0  0  0  0  0
  -15.3579   -3.0582    1.9550 H   0  0  0  0  0  0  0  0  0  0  0  0
  -12.5117   -2.5579    0.2028 H   0  0  0  0  0  0  0  0  0  0  0  0
  -10.3560   -2.8380    6.0678 H   0  0  0  0  0  0  0  0  0  0  0  0
  -11.7423    4.7126    2.9191 H   0  0  0  0  0  0  0  0  0  0  0  0
   -7.8522    3.3458    5.1382 H   0  0  0  0  0  0  0  0  0  0  0  0
   -5.2977    1.6301   -0.3996 H   0  0  0  0  0  0  0  0  0  0  0  0
   -9.4560    3.3086    1.4665 H   0  0  0  0  0  0  0  0  0  0  0  0
   -9.6612    1.5130    1.5192 H   0  0  0  0  0  0  0  0  0  0  0  0
   -8.0972    0.2180    1.1816 H   0  0  0  0  0  0  0  0  0  0  0  0
   -7.3621   -5.9424    2.7217 H   0  0  0  0  0  0  0  0  0  0  0  0
   -6.9186   -5.5808    4.4255 H   0  0  0  0  0  0  0  0  0  0  0  0
  -10.5718   -3.9968   -0.2960 H   0  0  0  0  0  0  0  0  0  0  0  0
  5  4  1  0
  1  5  1  1
  6  4  1  0
  7  6  1  0
  8  6  1  0
  8  9  1  0
 10  8  1  0
 10 11  1  0
 12 10  1  0
 12  7  1  0
 14  1  2  0
 15  2  2  0
 16  3  2  0
 17 13  2  0
 18  1  1  0
  2 19  1  1
 20  3  1  0
 21  1  1  0
 21  2  1  0
 22 17  1  0
 23  3  1  0
 23  2  1  0
 24  3  1  0
 25 22  2  0
 26 25  1  0
 27 26  2  0
 27 13  1  0
 28 27  1  0
 29 26  1  0
 30 29  2  0
 12 31  1  0
 31 30  1  0
 31 25  1  0
  4 32  1  0
  4 33  1  0
  6 34  1  6
  8 35  1  1
  9 36  1  0
 10 37  1  1
 11 38  1  0
 12 39  1  6
 17 40  1  0
 18 41  1  0
 19 42  1  0
 20 43  1  0
 21 44  1  0
 21 45  1  0
 24 46  1  0
 28 47  1  0
 28 48  1  0
 30 49  1  0
M  END
