
     RDKit          3D

 33 34  0  0  0  0  0  0  0  0999 V2000
   -6.7633  -19.9541   34.1320 C   0  0  0  0  0  0  0  0  0  0  0  0
   -6.5268  -18.5859   34.1889 C   0  0  0  0  0  0  0  0  0  0  0  0
   -7.1576  -20.3187   35.4336 C   0  0  0  0  0  0  0  0  0  0  0  0
   -7.0065  -19.1951   36.2116 C   0  0  0  0  0  0  0  0  0  0  0  0
   -7.5915  -21.5302   36.0094 C   0  0  0  0  0  0  0  0  0  0  0  0
   -6.6436  -18.1399   35.4598 N   0  0  0  0  0  0  0  0  0  0  0  0
   -7.1831  -19.2190   37.6012 C   0  0  0  0  0  0  0  0  0  0  0  0
   -7.7935  -21.5752   37.4038 C   0  0  0  0  0  0  0  0  0  0  0  0
   -7.5733  -20.4294   38.1982 C   0  0  0  0  0  0  0  0  0  0  0  0
   -6.0746  -22.4901   28.8977 P   0  0  0  0  0  0  0  0  0  0  0  0
   -4.9748  -21.5777   30.9853 C   0  0  0  0  0  0  0  0  0  0  0  0
   -5.0742  -20.7149   32.2632 C   0  0  1  0  0  0  0  0  0  0  0  0
   -4.7052  -19.3919   31.9855 O   0  0  0  0  0  0  0  0  0  0  0  0
   -6.4684  -20.8603   32.9494 C   0  0  1  0  0  0  0  0  0  0  0  0
   -6.4948  -22.1827   33.3969 O   0  0  0  0  0  0  0  0  0  0  0  0
   -6.2441  -24.0556   29.4591 O   0  0  0  0  0  0  0  0  0  0  0  0
   -7.3934  -22.1046   27.9463 O   0  0  0  0  0  0  0  0  0  0  0  0
   -4.7982  -22.3730   28.1037 O   0  0  0  0  0  0  0  0  0  0  0  0
   -6.1047  -21.4004   30.1824 O   0  0  0  0  0  0  0  0  0  0  0  0
   -6.2319  -17.9524   33.3641 H   0  0  0  0  0  0  0  0  0  0  0  0
   -7.7794  -22.4154   35.4205 H   0  0  0  0  0  0  0  0  0  0  0  0
   -6.4700  -17.1652   35.7922 H   0  0  0  0  0  0  0  0  0  0  0  0
   -7.0317  -18.3290   38.1983 H   0  0  0  0  0  0  0  0  0  0  0  0
   -8.1167  -22.4969   37.8699 H   0  0  0  0  0  0  0  0  0  0  0  0
   -7.7240  -20.4782   39.2688 H   0  0  0  0  0  0  0  0  0  0  0  0
   -4.8813  -22.6427   31.3024 H   0  0  0  0  0  0  0  0  0  0  0  0
   -4.0529  -21.2919   30.4298 H   0  0  0  0  0  0  0  0  0  0  0  0
   -4.2978  -21.1331   32.9520 H   0  0  0  0  0  0  0  0  0  0  0  0
   -5.0523  -19.1605   31.0838 H   0  0  0  0  0  0  0  0  0  0  0  0
   -7.2884  -20.7082   32.2175 H   0  0  0  0  0  0  0  0  0  0  0  0
   -7.4388  -22.4829   33.4899 H   0  0  0  0  0  0  0  0  0  0  0  0
   -7.1443  -24.3358   29.1555 H   0  0  0  0  0  0  0  0  0  0  0  0
   -8.1812  -22.3717   28.4841 H   0  0  0  0  0  0  0  0  0  0  0  0
  2  1  2  0
  3  1  1  0
  4  3  2  0
  5  3  1  0
  6  4  1  0
  6  2  1  0
  7  4  1  0
  8  5  2  0
  9  8  1  0
  9  7  2  0
 12 11  1  0
 12 13  1  0
 14  1  1  0
 14 12  1  0
 14 15  1  0
 16 10  1  0
 17 10  1  0
 18 10  2  0
 19 10  1  0
 19 11  1  0
  2 20  1  0
  5 21  1  0
  6 22  1  0
  7 23  1  0
  8 24  1  0
  9 25  1  0
 11 26  1  0
 11 27  1  0
 12 28  1  1
 13 29  1  0
 14 30  1  6
 15 31  1  0
 16 32  1  0
 17 33  1  0
M  END
