
     RDKit          3D

 35 37  0  0  0  0  0  0  0  0999 V2000
   12.2313   28.0609   32.2719 C   0  0  0  0  0  0  0  0  0  0  0  0
   12.9772   26.5797   33.0897 S   0  0  0  0  0  0  0  0  0  0  0  0
   12.3168   29.3044   33.1875 C   0  0  1  0  0  0  0  0  0  0  0  0
   12.4170   30.5462   32.4867 O   0  0  0  0  0  0  0  0  0  0  0  0
   11.1209   29.4011   34.1446 C   0  0  1  0  0  0  0  0  0  0  0  0
   11.5991   29.1898   35.4475 O   0  0  0  0  0  0  0  0  0  0  0  0
   10.6371   30.8345   33.9299 C   0  0  1  0  0  0  0  0  0  0  0  0
   10.1006   31.4496   35.0753 O   0  0  0  0  0  0  0  0  0  0  0  0
   11.8978   31.5094   33.3918 C   0  0  2  0  0  0  0  0  0  0  0  0
   13.3833   36.5088   32.7805 N   0  0  0  0  0  0  0  0  0  0  0  0
   13.9743   35.5274   33.5322 C   0  0  0  0  0  0  0  0  0  0  0  0
   13.4427   34.2624   33.5842 N   0  0  0  0  0  0  0  0  0  0  0  0
   12.3158   33.9986   32.8678 C   0  0  0  0  0  0  0  0  0  0  0  0
   11.7128   34.9611   32.1109 C   0  0  0  0  0  0  0  0  0  0  0  0
   12.2515   36.2639   32.0595 C   0  0  0  0  0  0  0  0  0  0  0  0
   11.6726   37.3082   31.2795 N   0  0  0  0  0  0  0  0  0  0  0  0
   10.6356   34.4414   31.4883 N   0  0  0  0  0  0  0  0  0  0  0  0
   10.6215   33.1425   31.9014 C   0  0  0  0  0  0  0  0  0  0  0  0
   11.6363   32.8260   32.7540 N   0  0  0  0  0  0  0  0  0  0  0  0
   12.8245   27.0073   34.8573 C   0  0  0  0  0  0  0  0  0  0  0  0
   12.8289   28.2598   31.3576 H   0  0  0  0  0  0  0  0  0  0  0  0
   11.1908   27.8533   31.9434 H   0  0  0  0  0  0  0  0  0  0  0  0
   13.2619   29.2058   33.7723 H   0  0  0  0  0  0  0  0  0  0  0  0
   10.3058   28.6791   33.9022 H   0  0  0  0  0  0  0  0  0  0  0  0
   11.8862   28.2407   35.4935 H   0  0  0  0  0  0  0  0  0  0  0  0
    9.8496   30.8045   33.1485 H   0  0  0  0  0  0  0  0  0  0  0  0
   10.8525   31.6879   35.6775 H   0  0  0  0  0  0  0  0  0  0  0  0
   12.6318   31.6645   34.2189 H   0  0  0  0  0  0  0  0  0  0  0  0
   14.8702   35.7527   34.0940 H   0  0  0  0  0  0  0  0  0  0  0  0
   10.7720   37.7520   31.5664 H   0  0  0  0  0  0  0  0  0  0  0  0
   12.1460   37.6415   30.4107 H   0  0  0  0  0  0  0  0  0  0  0  0
    9.8784   32.4383   31.5555 H   0  0  0  0  0  0  0  0  0  0  0  0
   11.8219   27.4358   35.0626 H   0  0  0  0  0  0  0  0  0  0  0  0
   12.9544   26.0877   35.4636 H   0  0  0  0  0  0  0  0  0  0  0  0
   13.6106   27.7323   35.1429 H   0  0  0  0  0  0  0  0  0  0  0  0
  2  1  1  0
  3  1  1  0
  4  3  1  0
  5  3  1  0
  5  6  1  0
  7  5  1  0
  7  8  1  0
  9  7  1  0
  9  4  1  0
 11 10  2  0
 12 11  1  0
 13 12  2  0
 14 13  1  0
 15 14  2  0
 15 10  1  0
 16 15  1  0
 17 14  1  0
 18 17  2  0
 19 18  1  0
  9 19  1  0
 19 13  1  0
 20  2  1  0
  1 21  1  0
  1 22  1  0
  3 23  1  1
  5 24  1  6
  6 25  1  0
  7 26  1  6
  8 27  1  0
  9 28  1  1
 11 29  1  0
 16 30  1  0
 16 31  1  0
 18 32  1  0
 20 33  1  0
 20 34  1  0
 20 35  1  0
M  END
