
     RDKit          3D

 43 45  0  0  0  0  0  0  0  0999 V2000
   96.1118   76.8036  -46.3424 C   0  0  0  0  0  0  0  0  0  0  0  0
   92.5505   81.8838  -50.4254 N   0  0  0  0  0  0  0  0  0  0  0  0
   86.5521   80.4591  -44.4803 O   0  0  0  0  0  0  0  0  0  0  0  0
   93.1828   80.6299  -48.3398 S   0  0  0  0  0  0  0  0  0  0  0  0
   97.1374   77.4729  -47.0444 C   0  0  0  0  0  0  0  0  0  0  0  0
   94.0523   81.0661  -52.1070 N   0  0  0  0  0  0  0  0  0  0  0  0
   86.7087   82.8329  -43.7559 O   0  0  0  0  0  0  0  0  0  0  0  0
   87.4749   81.5637  -44.0401 S   0  0  0  0  0  0  0  0  0  0  0  0
   96.8384   78.2626  -48.1763 C   0  0  0  0  0  0  0  0  0  0  0  0
   91.1834   82.5596  -48.5803 N   0  0  0  0  0  0  0  0  0  0  0  0
   95.7970   79.0941  -50.8790 O   0  0  0  0  0  0  0  0  0  0  0  0
   94.4848   77.7163  -47.9185 C   0  0  0  0  0  0  0  0  0  0  0  0
   88.3356   81.0871  -42.6326 N   0  0  0  0  0  0  0  0  0  0  0  0
   94.7807   76.9327  -46.7940 C   0  0  0  0  0  0  0  0  0  0  0  0
   96.4432   76.0254  -45.2170 O   0  0  0  0  0  0  0  0  0  0  0  0
   95.5203   75.2093  -44.5027 C   0  0  0  0  0  0  0  0  0  0  0  0
   95.5013   78.4032  -48.6166 C   0  0  0  0  0  0  0  0  0  0  0  0
   95.1532   79.2456  -49.8017 C   0  0  0  0  0  0  0  0  0  0  0  0
   94.0534   80.2459  -49.7356 C   0  0  0  0  0  0  0  0  0  0  0  0
   93.5636   81.0595  -50.7704 C   0  0  0  0  0  0  0  0  0  0  0  0
   92.2037   81.7455  -49.1387 C   0  0  0  0  0  0  0  0  0  0  0  0
   90.3507   82.2781  -47.4520 C   0  0  0  0  0  0  0  0  0  0  0  0
   90.6180   81.2534  -46.5073 C   0  0  0  0  0  0  0  0  0  0  0  0
   89.7540   81.0524  -45.4325 C   0  0  0  0  0  0  0  0  0  0  0  0
   88.6064   81.8483  -45.3120 C   0  0  0  0  0  0  0  0  0  0  0  0
   88.3185   82.8357  -46.2578 C   0  0  0  0  0  0  0  0  0  0  0  0
   89.1879   83.0532  -47.3156 C   0  0  0  0  0  0  0  0  0  0  0  0
   98.1640   77.3816  -46.7136 H   0  0  0  0  0  0  0  0  0  0  0  0
   93.6571   81.7501  -52.7898 H   0  0  0  0  0  0  0  0  0  0  0  0
   94.7441   80.3830  -52.4752 H   0  0  0  0  0  0  0  0  0  0  0  0
   97.6395   78.7714  -48.6977 H   0  0  0  0  0  0  0  0  0  0  0  0
   90.9529   83.4127  -49.1402 H   0  0  0  0  0  0  0  0  0  0  0  0
   93.4572   77.7739  -48.2551 H   0  0  0  0  0  0  0  0  0  0  0  0
   88.5483   80.0688  -42.7284 H   0  0  0  0  0  0  0  0  0  0  0  0
   87.6761   81.1754  -41.8274 H   0  0  0  0  0  0  0  0  0  0  0  0
   93.9686   76.4277  -46.2895 H   0  0  0  0  0  0  0  0  0  0  0  0
   96.0647   74.5357  -43.8076 H   0  0  0  0  0  0  0  0  0  0  0  0
   94.8054   75.8450  -43.9388 H   0  0  0  0  0  0  0  0  0  0  0  0
   94.9507   74.5892  -45.2247 H   0  0  0  0  0  0  0  0  0  0  0  0
   91.4386   80.5700  -46.6002 H   0  0  0  0  0  0  0  0  0  0  0  0
   89.9592   80.2581  -44.7270 H   0  0  0  0  0  0  0  0  0  0  0  0
   87.4198   83.4348  -46.1798 H   0  0  0  0  0  0  0  0  0  0  0  0
   88.9521   83.8285  -48.0342 H   0  0  0  0  0  0  0  0  0  0  0  0
  5  1  2  0
  8  3  2  0
  8  7  2  0
  9  5  1  0
  8 13  1  0
 14 12  2  0
 14  1  1  0
 15  1  1  0
 16 15  1  0
 17 12  1  0
 17  9  2  0
 18 17  1  0
 18 11  2  0
 19 18  1  0
 19  4  1  0
 20  2  1  0
 20 19  2  0
 20  6  1  0
 21 10  1  0
 21  2  2  0
 21  4  1  0
 22 10  1  0
 23 22  2  0
 24 23  1  0
 25 24  2  0
 25  8  1  0
 26 25  1  0
 27 26  2  0
 27 22  1  0
  5 28  1  0
  6 29  1  0
  6 30  1  0
  9 31  1  0
 10 32  1  0
 12 33  1  0
 13 34  1  0
 13 35  1  0
 14 36  1  0
 16 37  1  0
 16 38  1  0
 16 39  1  0
 23 40  1  0
 24 41  1  0
 26 42  1  0
 27 43  1  0
M  END
