
     RDKit          3D

 43 45  0  0  0  0  0  0  0  0999 V2000
   96.4017   76.9796  -46.5437 C   0  0  0  0  0  0  0  0  0  0  0  0
   92.6605   81.6591  -50.9365 N   0  0  0  0  0  0  0  0  0  0  0  0
   89.3784   81.2699  -43.0594 O   0  0  0  0  0  0  0  0  0  0  0  0
   93.4344   80.6539  -48.7657 S   0  0  0  0  0  0  0  0  0  0  0  0
   97.3560   77.6975  -47.2962 C   0  0  0  0  0  0  0  0  0  0  0  0
   93.9802   80.5702  -52.6171 N   0  0  0  0  0  0  0  0  0  0  0  0
   87.2564   80.9457  -44.3149 O   0  0  0  0  0  0  0  0  0  0  0  0
   88.4174   81.8729  -44.0485 S   0  0  0  0  0  0  0  0  0  0  0  0
   96.9856   78.3546  -48.4900 C   0  0  0  0  0  0  0  0  0  0  0  0
   91.4848   82.6223  -49.0872 N   0  0  0  0  0  0  0  0  0  0  0  0
   95.7623   78.6961  -51.2933 O   0  0  0  0  0  0  0  0  0  0  0  0
   94.7027   77.5768  -48.1934 C   0  0  0  0  0  0  0  0  0  0  0  0
   87.8279   83.3737  -43.4579 N   0  0  0  0  0  0  0  0  0  0  0  0
   95.0696   76.9249  -47.0075 C   0  0  0  0  0  0  0  0  0  0  0  0
   96.8031   76.3370  -45.3572 O   0  0  0  0  0  0  0  0  0  0  0  0
   96.1926   76.5385  -44.0865 C   0  0  0  0  0  0  0  0  0  0  0  0
   95.6462   78.3114  -48.9435 C   0  0  0  0  0  0  0  0  0  0  0  0
   95.2218   79.0110  -50.1948 C   0  0  0  0  0  0  0  0  0  0  0  0
   94.1651   80.0583  -50.1676 C   0  0  0  0  0  0  0  0  0  0  0  0
   93.6119   80.7545  -51.2548 C   0  0  0  0  0  0  0  0  0  0  0  0
   92.4248   81.7004  -49.6182 C   0  0  0  0  0  0  0  0  0  0  0  0
   90.7468   82.5228  -47.8661 C   0  0  0  0  0  0  0  0  0  0  0  0
   90.6536   83.5677  -46.9104 C   0  0  0  0  0  0  0  0  0  0  0  0
   89.9063   83.3859  -45.7482 C   0  0  0  0  0  0  0  0  0  0  0  0
   89.2766   82.1547  -45.5188 C   0  0  0  0  0  0  0  0  0  0  0  0
   89.3932   81.1095  -46.4388 C   0  0  0  0  0  0  0  0  0  0  0  0
   90.1170   81.2950  -47.6065 C   0  0  0  0  0  0  0  0  0  0  0  0
   98.3827   77.7465  -46.9567 H   0  0  0  0  0  0  0  0  0  0  0  0
   93.5483   81.1786  -53.3477 H   0  0  0  0  0  0  0  0  0  0  0  0
   94.6142   79.8166  -52.9499 H   0  0  0  0  0  0  0  0  0  0  0  0
   97.7323   78.9037  -49.0498 H   0  0  0  0  0  0  0  0  0  0  0  0
   91.2333   83.4067  -49.7321 H   0  0  0  0  0  0  0  0  0  0  0  0
   93.6789   77.4938  -48.5359 H   0  0  0  0  0  0  0  0  0  0  0  0
   88.6162   83.8417  -42.9570 H   0  0  0  0  0  0  0  0  0  0  0  0
   87.1078   83.1547  -42.7336 H   0  0  0  0  0  0  0  0  0  0  0  0
   94.3116   76.3769  -46.4648 H   0  0  0  0  0  0  0  0  0  0  0  0
   95.4299   75.7531  -43.9004 H   0  0  0  0  0  0  0  0  0  0  0  0
   96.9623   76.5224  -43.2862 H   0  0  0  0  0  0  0  0  0  0  0  0
   95.6922   77.5284  -44.0778 H   0  0  0  0  0  0  0  0  0  0  0  0
   91.1802   84.4966  -47.0043 H   0  0  0  0  0  0  0  0  0  0  0  0
   89.8550   84.1837  -45.0191 H   0  0  0  0  0  0  0  0  0  0  0  0
   88.9278   80.1498  -46.2515 H   0  0  0  0  0  0  0  0  0  0  0  0
   90.1894   80.4759  -48.3116 H   0  0  0  0  0  0  0  0  0  0  0  0
  5  1  2  0
  8  3  2  0
  8  7  2  0
  9  5  1  0
  8 13  1  0
 14 12  2  0
 14  1  1  0
 15  1  1  0
 16 15  1  0
 17 12  1  0
 17  9  2  0
 18 17  1  0
 18 11  2  0
 19 18  1  0
 19  4  1  0
 20  2  1  0
 20 19  2  0
 20  6  1  0
 21 10  1  0
 21  2  2  0
 21  4  1  0
 22 10  1  0
 23 22  2  0
 24 23  1  0
 25 24  2  0
 25  8  1  0
 26 25  1  0
 27 26  2  0
 27 22  1  0
  5 28  1  0
  6 29  1  0
  6 30  1  0
  9 31  1  0
 10 32  1  0
 12 33  1  0
 13 34  1  0
 13 35  1  0
 14 36  1  0
 16 37  1  0
 16 38  1  0
 16 39  1  0
 23 40  1  0
 24 41  1  0
 26 42  1  0
 27 43  1  0
M  END
