
     RDKit          3D

 53 55  0  0  0  0  0  0  0  0999 V2000
   13.9962    6.9219   27.2029 Cl  0  0  0  0  0  0  0  0  0  0  0  0
   12.3254    7.2370   26.8325 C   0  0  0  0  0  0  0  0  0  0  0  0
    6.6746    8.4100   22.4596 N   0  0  0  0  0  0  0  0  0  0  0  0
    6.3572   10.2064   24.3437 O   0  0  0  0  0  0  0  0  0  0  0  0
    6.4988    8.7293   24.1510 S   0  0  0  0  0  0  0  0  0  0  0  0
   11.2282    6.7288   27.5116 C   0  0  0  0  0  0  0  0  0  0  0  0
    7.0514    5.3781   20.5365 N   0  0  0  0  0  0  0  0  0  0  0  0
    5.2689    8.0333   24.6574 O   0  0  0  0  0  0  0  0  0  0  0  0
   10.0133    7.1612   26.9722 C   0  0  0  0  0  0  0  0  0  0  0  0
    7.7631    3.3750   17.5050 N   0  0  0  0  0  0  0  0  0  0  0  0
    8.7893    6.5701   21.5775 O   0  0  0  0  0  0  0  0  0  0  0  0
   10.1707    8.0027   25.8633 C   0  0  0  0  0  0  0  0  0  0  0  0
    7.7122    5.6658   17.9101 O   0  0  0  0  0  0  0  0  0  0  0  0
    6.9321    1.2162   15.9489 O   0  0  0  0  0  0  0  0  0  0  0  0
    7.8694    8.1046   25.0529 C   0  0  0  0  0  0  0  0  0  0  0  0
   11.8173    8.2166   25.5764 S   0  0  0  0  0  0  0  0  0  0  0  0
    9.4981    9.8059   24.1766 C   0  0  0  0  0  0  0  0  0  0  0  0
    9.1052    8.6390   25.0556 C   0  0  0  0  0  0  0  0  0  0  0  0
    6.4652    6.9812   22.1951 C   0  0  1  0  0  0  0  0  0  0  0  0
    5.2518    6.7501   21.2837 C   0  0  0  0  0  0  0  0  0  0  0  0
    5.5943    5.4834   20.4865 C   0  0  0  0  0  0  0  0  0  0  0  0
    7.5578    6.3428   21.4273 C   0  0  0  0  0  0  0  0  0  0  0  0
    7.8749    4.3554   19.8877 C   0  0  1  0  0  0  0  0  0  0  0  0
    7.4445    2.9522   20.3277 C   0  0  0  0  0  0  0  0  0  0  0  0
    7.7889    4.5059   18.3934 C   0  0  0  0  0  0  0  0  0  0  0  0
    7.4473    3.5737   16.0870 C   0  0  0  0  0  0  0  0  0  0  0  0
    6.4449    2.5107   15.6481 C   0  0  0  0  0  0  0  0  0  0  0  0
    7.0589    1.0437   17.3484 C   0  0  0  0  0  0  0  0  0  0  0  0
    8.1040    2.0054   17.9150 C   0  0  0  0  0  0  0  0  0  0  0  0
    7.6351    8.7173   22.1852 H   0  0  0  0  0  0  0  0  0  0  0  0
   11.3033    6.0740   28.3696 H   0  0  0  0  0  0  0  0  0  0  0  0
    9.0619    6.8754   27.3983 H   0  0  0  0  0  0  0  0  0  0  0  0
    7.6596    7.2200   25.6367 H   0  0  0  0  0  0  0  0  0  0  0  0
   10.3266   10.3854   24.6337 H   0  0  0  0  0  0  0  0  0  0  0  0
    9.8300    9.4267   23.1878 H   0  0  0  0  0  0  0  0  0  0  0  0
    8.6804   10.5311   24.0289 H   0  0  0  0  0  0  0  0  0  0  0  0
    6.3345    6.3775   23.1225 H   0  0  0  0  0  0  0  0  0  0  0  0
    4.3203    6.6197   21.8761 H   0  0  0  0  0  0  0  0  0  0  0  0
    5.1272    7.6052   20.5822 H   0  0  0  0  0  0  0  0  0  0  0  0
    5.2246    5.5635   19.4439 H   0  0  0  0  0  0  0  0  0  0  0  0
    5.1372    4.5990   20.9803 H   0  0  0  0  0  0  0  0  0  0  0  0
    8.9279    4.5009   20.2077 H   0  0  0  0  0  0  0  0  0  0  0  0
    7.0855    2.9496   21.3765 H   0  0  0  0  0  0  0  0  0  0  0  0
    6.6203    2.5906   19.6769 H   0  0  0  0  0  0  0  0  0  0  0  0
    8.2956    2.2415   20.2584 H   0  0  0  0  0  0  0  0  0  0  0  0
    8.3790    3.4753   15.4888 H   0  0  0  0  0  0  0  0  0  0  0  0
    7.0104    4.5736   15.8817 H   0  0  0  0  0  0  0  0  0  0  0  0
    6.2980    2.5877   14.5502 H   0  0  0  0  0  0  0  0  0  0  0  0
    5.4552    2.6864   16.1282 H   0  0  0  0  0  0  0  0  0  0  0  0
    6.0794    1.1892   17.8586 H   0  0  0  0  0  0  0  0  0  0  0  0
    7.3844    0.0012   17.5490 H   0  0  0  0  0  0  0  0  0  0  0  0
    9.1074    1.7439   17.5148 H   0  0  0  0  0  0  0  0  0  0  0  0
    8.1261    1.8751   19.0116 H   0  0  0  0  0  0  0  0  0  0  0  0
  2  1  1  0
  5  4  2  0
  5  3  1  0
  6  2  2  0
  8  5  2  0
  9  6  1  0
 12  9  2  0
 15  5  1  0
 16 12  1  0
 16  2  1  0
 18 17  1  0
 18 15  2  3
 18 12  1  0
 19  3  1  0
 20 19  1  0
 21 20  1  0
 21  7  1  0
 22  7  1  0
 22 11  2  0
 22 19  1  0
 23  7  1  0
 23 24  1  0
 25 23  1  0
 25 13  2  0
 25 10  1  0
 26 10  1  0
 27 14  1  0
 27 26  1  0
 28 14  1  0
 29 28  1  0
 29 10  1  0
  3 30  1  0
  6 31  1  0
  9 32  1  0
 15 33  1  0
 17 34  1  0
 17 35  1  0
 17 36  1  0
 19 37  1  1
 20 38  1  0
 20 39  1  0
 21 40  1  0
 21 41  1  0
 23 42  1  1
 24 43  1  0
 24 44  1  0
 24 45  1  0
 26 46  1  0
 26 47  1  0
 27 48  1  0
 27 49  1  0
 28 50  1  0
 28 51  1  0
 29 52  1  0
 29 53  1  0
M  END
