
     RDKit          3D

 47 50  0  0  0  0  0  0  0  0999 V2000
   19.7547   -2.4676    7.6049 C   0  0  0  0  0  0  0  0  0  0  0  0
   20.7546   -2.9952    8.4470 C   0  0  0  0  0  0  0  0  0  0  0  0
   21.0754   -4.3612    8.3482 C   0  0  0  0  0  0  0  0  0  0  0  0
   20.4692   -5.1925    7.3980 C   0  0  0  0  0  0  0  0  0  0  0  0
   19.4844   -4.6500    6.5564 C   0  0  0  0  0  0  0  0  0  0  0  0
   19.1288   -3.2995    6.6692 C   0  0  0  0  0  0  0  0  0  0  0  0
   20.9724   -6.5815    7.2366 C   0  0  0  0  0  0  0  0  0  0  0  0
   22.2730   -6.9171    7.3458 N   0  0  0  0  0  0  0  0  0  0  0  0
   22.2896   -8.2378    7.1273 C   0  0  0  0  0  0  0  0  0  0  0  0
   21.0500   -8.7005    6.8884 N   0  0  0  0  0  0  0  0  0  0  0  0
   20.2140   -7.6684    6.9559 N   0  0  0  0  0  0  0  0  0  0  0  0
   23.3752   -6.0576    7.6077 C   0  0  0  0  0  0  0  0  0  0  0  0
   23.2291   -4.6591    7.4619 C   0  0  0  0  0  0  0  0  0  0  0  0
   24.5773   -6.6012    8.0904 C   0  0  0  0  0  0  0  0  0  0  0  0
   24.2926   -3.7928    7.7732 C   0  0  0  0  0  0  0  0  0  0  0  0
   25.4801   -4.3625    8.2463 C   0  0  0  0  0  0  0  0  0  0  0  0
   25.6075   -5.7200    8.4026 C   0  0  0  0  0  0  0  0  0  0  0  0
   26.8762   -5.9673    8.8842 C   0  0  0  0  0  0  0  0  0  0  0  0
   26.6245   -3.7455    8.6098 N   0  0  0  0  0  0  0  0  0  0  0  0
   27.4798   -4.7206    8.9993 C   0  0  0  0  0  0  0  0  0  0  0  0
   26.9113   -2.3151    8.5851 C   0  0  0  0  0  0  0  0  0  0  0  0
   21.3845   -2.1324    9.5281 C   0  0  0  0  0  0  0  0  0  0  0  0
   20.5254   -2.2078   10.7925 C   0  0  0  0  0  0  0  0  0  0  0  0
   22.8502   -2.4951    9.8428 C   0  0  0  0  0  0  0  0  0  0  0  0
   19.3821   -1.1273    7.6981 O   0  0  0  0  0  0  0  0  0  0  0  0
   18.8564   -5.4210    5.5851 O   0  0  0  0  0  0  0  0  0  0  0  0
   23.3367   -8.9467    7.1357 O   0  0  0  0  0  0  0  0  0  0  0  0
   21.7968   -4.7990    9.0229 H   0  0  0  0  0  0  0  0  0  0  0  0
   18.3656   -2.8950    6.0159 H   0  0  0  0  0  0  0  0  0  0  0  0
   20.7702   -9.6854    6.6847 H   0  0  0  0  0  0  0  0  0  0  0  0
   22.2919   -4.2470    7.1099 H   0  0  0  0  0  0  0  0  0  0  0  0
   24.6951   -7.6686    8.2292 H   0  0  0  0  0  0  0  0  0  0  0  0
   24.1877   -2.7221    7.6575 H   0  0  0  0  0  0  0  0  0  0  0  0
   27.3131   -6.9288    9.1193 H   0  0  0  0  0  0  0  0  0  0  0  0
   28.4894   -4.5444    9.3479 H   0  0  0  0  0  0  0  0  0  0  0  0
   27.5684   -2.0618    7.7259 H   0  0  0  0  0  0  0  0  0  0  0  0
   25.9626   -1.7461    8.4906 H   0  0  0  0  0  0  0  0  0  0  0  0
   27.4236   -2.0208    9.5251 H   0  0  0  0  0  0  0  0  0  0  0  0
   21.3933   -1.0749    9.1837 H   0  0  0  0  0  0  0  0  0  0  0  0
   20.4756   -1.2130   11.2851 H   0  0  0  0  0  0  0  0  0  0  0  0
   20.9687   -2.9277   11.5133 H   0  0  0  0  0  0  0  0  0  0  0  0
   19.4932   -2.5381   10.5457 H   0  0  0  0  0  0  0  0  0  0  0  0
   22.8902   -3.4820   10.3511 H   0  0  0  0  0  0  0  0  0  0  0  0
   23.2950   -1.7386   10.5243 H   0  0  0  0  0  0  0  0  0  0  0  0
   23.4645   -2.5657    8.9205 H   0  0  0  0  0  0  0  0  0  0  0  0
   18.6642   -0.7319    7.1022 H   0  0  0  0  0  0  0  0  0  0  0  0
   19.1934   -5.5105    4.6362 H   0  0  0  0  0  0  0  0  0  0  0  0
  2  1  2  0
  3  2  1  0
  4  3  2  0
  5  4  1  0
  6  5  2  0
  6  1  1  0
  7  4  1  0
  8  7  1  0
  9  8  1  0
 10  9  1  0
 11 10  1  0
 11  7  2  0
 12  8  1  0
 13 12  2  0
 14 12  1  0
 15 13  1  0
 16 15  2  0
 17 14  2  0
 17 16  1  0
 18 17  1  0
 19 16  1  0
 20 19  1  0
 20 18  2  0
 21 19  1  0
 22  2  1  0
 22 23  1  0
 24 22  1  0
 25  1  1  0
 26  5  1  0
 27  9  2  0
  3 28  1  0
  6 29  1  0
 10 30  1  0
 13 31  1  0
 14 32  1  0
 15 33  1  0
 18 34  1  0
 20 35  1  0
 21 36  1  0
 21 37  1  0
 21 38  1  0
 22 39  1  0
 23 40  1  0
 23 41  1  0
 23 42  1  0
 24 43  1  0
 24 44  1  0
 24 45  1  0
 25 46  1  0
 26 47  1  0
M  END
