
     RDKit          3D

 15 14  0  0  0  0  0  0  0  0999 V2000
   53.8146   22.0934   42.5738 P   0  0  0  0  0  0  0  0  0  0  0  0
   52.5147   21.4862   42.0925 O   0  0  0  0  0  0  0  0  0  0  0  0
   53.5395   23.5808   43.3144 O   0  0  0  0  0  0  0  0  0  0  0  0
   54.5698   21.0516   43.6414 O   0  0  0  0  0  0  0  0  0  0  0  0
   54.3680   25.5674   41.7622 O   0  0  0  0  0  0  0  0  0  0  0  0
   55.0197   24.8940   40.9237 C   0  0  0  0  0  0  0  0  0  0  0  0
   56.1983   25.3930   40.3950 O   0  0  0  0  0  0  0  0  0  0  0  0
   54.5222   23.5888   40.4907 C   0  0  0  0  0  0  0  0  0  0  0  0
   53.6635   23.5306   39.5721 O   0  0  0  0  0  0  0  0  0  0  0  0
   54.9293   22.3405   41.1780 C   0  0  0  0  0  0  0  0  0  0  0  0
   52.9897   24.0891   42.6662 H   0  0  0  0  0  0  0  0  0  0  0  0
   55.5383   21.2152   43.5136 H   0  0  0  0  0  0  0  0  0  0  0  0
   56.2815   25.5901   39.4048 H   0  0  0  0  0  0  0  0  0  0  0  0
   55.9754   22.4080   41.5435 H   0  0  0  0  0  0  0  0  0  0  0  0
   54.8505   21.4756   40.4854 H   0  0  0  0  0  0  0  0  0  0  0  0
  2  1  2  0
  3  1  1  0
  4  1  1  0
  6  5  2  0
  7  6  1  0
  8  6  1  0
  9  8  2  0
 10  8  1  0
 10  1  1  0
  3 11  1  0
  4 12  1  0
  7 13  1  0
 10 14  1  0
 10 15  1  0
M  END
