
     RDKit          3D

 15 14  0  0  0  0  0  0  0  0999 V2000
   56.4019   22.6901   42.6331 P   0  0  0  0  0  0  0  0  0  0  0  0
   57.8377   22.2779   42.3908 O   0  0  0  0  0  0  0  0  0  0  0  0
   55.9237   22.2927   44.1983 O   0  0  0  0  0  0  0  0  0  0  0  0
   56.2300   24.3339   42.3803 O   0  0  0  0  0  0  0  0  0  0  0  0
   55.8464   24.5048   40.4836 O   0  0  0  0  0  0  0  0  0  0  0  0
   54.6626   24.0890   40.4005 C   0  0  0  0  0  0  0  0  0  0  0  0
   53.7056   24.8405   39.7394 O   0  0  0  0  0  0  0  0  0  0  0  0
   54.2904   22.8178   41.0202 C   0  0  0  0  0  0  0  0  0  0  0  0
   53.0775   22.5809   41.2597 O   0  0  0  0  0  0  0  0  0  0  0  0
   55.3170   21.8461   41.4658 C   0  0  0  0  0  0  0  0  0  0  0  0
   54.9339   22.3173   44.1750 H   0  0  0  0  0  0  0  0  0  0  0  0
   57.0890   24.6203   41.9790 H   0  0  0  0  0  0  0  0  0  0  0  0
   53.6082   25.8327   39.9194 H   0  0  0  0  0  0  0  0  0  0  0  0
   55.9124   21.4713   40.6071 H   0  0  0  0  0  0  0  0  0  0  0  0
   54.8359   20.9804   41.9689 H   0  0  0  0  0  0  0  0  0  0  0  0
  2  1  2  0
  3  1  1  0
  4  1  1  0
  6  5  2  0
  7  6  1  0
  8  6  1  0
  9  8  2  0
 10  8  1  0
 10  1  1  0
  3 11  1  0
  4 12  1  0
  7 13  1  0
 10 14  1  0
 10 15  1  0
M  END
