
     RDKit          3D

 62 64  0  0  0  0  0  0  0  0999 V2000
   68.1694   54.9793   42.7419 P   0  0  2  0  0  0  0  0  0  0  0  0
   70.2476   54.8092   44.2514 C   0  0  0  0  0  0  0  0  0  0  0  0
   68.8637   54.5584   44.2200 O   0  0  0  0  0  0  0  0  0  0  0  0
   70.5676   55.5714   45.5486 C   0  0  1  0  0  0  0  0  0  0  0  0
   70.2266   56.9306   45.3650 O   0  0  0  0  0  0  0  0  0  0  0  0
   69.8117   55.0398   46.7822 C   0  0  1  0  0  0  0  0  0  0  0  0
   70.6722   55.0615   47.8962 O   0  0  0  0  0  0  0  0  0  0  0  0
   68.6910   56.0453   46.9385 C   0  0  1  0  0  0  0  0  0  0  0  0
   68.2596   56.1691   48.2711 O   0  0  0  0  0  0  0  0  0  0  0  0
   69.3644   57.3048   46.4153 C   0  0  2  0  0  0  0  0  0  0  0  0
   67.0629   52.1672   42.2904 C   0  0  0  0  0  0  0  0  0  0  0  0
   68.3884   58.3001   45.9350 N   0  0  0  0  0  0  0  0  0  0  0  0
   66.6683   55.0109   42.9249 O   0  0  0  0  0  0  0  0  0  0  0  0
   66.9130   51.9338   43.5208 O   0  0  0  0  0  0  0  0  0  0  0  0
   65.9899   52.0062   41.4308 O   0  0  0  0  0  0  0  0  0  0  0  0
   68.4409   52.5264   41.7488 C   0  0  2  0  0  0  0  0  0  0  0  0
   68.2112   59.4812   46.6031 C   0  0  0  0  0  0  0  0  0  0  0  0
   68.6159   53.9099   41.5128 O   0  0  0  0  0  0  0  0  0  0  0  0
   68.7130   56.4763   42.2009 O   0  0  0  0  0  0  0  0  0  0  0  0
   68.8669   59.7324   47.6466 O   0  0  0  0  0  0  0  0  0  0  0  0
   68.6530   51.9532   40.3254 C   0  0  0  0  0  0  0  0  0  0  0  0
   67.3291   60.4030   46.1446 N   0  0  0  0  0  0  0  0  0  0  0  0
   68.8587   50.4422   40.3171 C   0  0  1  0  0  0  0  0  0  0  0  0
   66.6071   60.1873   45.0197 C   0  0  0  0  0  0  0  0  0  0  0  0
   65.6864   61.1750   44.5747 N   0  0  0  0  0  0  0  0  0  0  0  0
   69.2370   50.0005   39.0390 O   0  0  0  0  0  0  0  0  0  0  0  0
   69.8986   50.0393   41.3681 C   0  0  1  0  0  0  0  0  0  0  0  0
   66.7707   58.9999   44.3116 C   0  0  0  0  0  0  0  0  0  0  0  0
   71.1661   50.5447   41.0163 O   0  0  0  0  0  0  0  0  0  0  0  0
   69.4536   50.6269   42.7120 C   0  0  2  0  0  0  0  0  0  0  0  0
   67.6730   58.0592   44.7958 C   0  0  0  0  0  0  0  0  0  0  0  0
   69.4555   52.0518   42.6336 O   0  0  0  0  0  0  0  0  0  0  0  0
   70.3340   50.1408   43.8721 C   0  0  2  0  0  0  0  0  0  0  0  0
   70.0484   48.7852   44.1192 O   0  0  0  0  0  0  0  0  0  0  0  0
   70.0816   50.9445   45.1545 C   0  0  0  0  0  0  0  0  0  0  0  0
   68.7072   51.1357   45.3690 O   0  0  0  0  0  0  0  0  0  0  0  0
   70.7971   53.8482   44.2371 H   0  0  0  0  0  0  0  0  0  0  0  0
   70.6243   55.4129   43.3952 H   0  0  0  0  0  0  0  0  0  0  0  0
   71.6658   55.5058   45.7160 H   0  0  0  0  0  0  0  0  0  0  0  0
   69.4073   54.0184   46.6260 H   0  0  0  0  0  0  0  0  0  0  0  0
   70.2770   54.4546   48.5753 H   0  0  0  0  0  0  0  0  0  0  0  0
   67.8359   55.7444   46.2904 H   0  0  0  0  0  0  0  0  0  0  0  0
   67.4670   56.7662   48.2531 H   0  0  0  0  0  0  0  0  0  0  0  0
   70.0058   57.7230   47.2244 H   0  0  0  0  0  0  0  0  0  0  0  0
   66.0528   52.2920   40.4611 H   0  0  0  0  0  0  0  0  0  0  0  0
   67.9995   57.1196   42.4405 H   0  0  0  0  0  0  0  0  0  0  0  0
   69.5595   52.4276   39.8833 H   0  0  0  0  0  0  0  0  0  0  0  0
   67.8032   52.2205   39.6591 H   0  0  0  0  0  0  0  0  0  0  0  0
   67.8933   49.9497   40.5666 H   0  0  0  0  0  0  0  0  0  0  0  0
   65.5674   62.0631   45.1109 H   0  0  0  0  0  0  0  0  0  0  0  0
   65.1181   61.0296   43.7105 H   0  0  0  0  0  0  0  0  0  0  0  0
   70.0744   50.4652   38.7779 H   0  0  0  0  0  0  0  0  0  0  0  0
   69.9137   48.9244   41.4203 H   0  0  0  0  0  0  0  0  0  0  0  0
   66.2062   58.8030   43.4089 H   0  0  0  0  0  0  0  0  0  0  0  0
   71.8359   49.8560   41.2660 H   0  0  0  0  0  0  0  0  0  0  0  0
   68.4386   50.2283   42.9394 H   0  0  0  0  0  0  0  0  0  0  0  0
   67.7977   57.1329   44.2562 H   0  0  0  0  0  0  0  0  0  0  0  0
   71.4124   50.2731   43.6172 H   0  0  0  0  0  0  0  0  0  0  0  0
   69.0614   48.6992   44.1825 H   0  0  0  0  0  0  0  0  0  0  0  0
   70.5860   51.9258   45.0811 H   0  0  0  0  0  0  0  0  0  0  0  0
   70.5390   50.4030   46.0148 H   0  0  0  0  0  0  0  0  0  0  0  0
   68.5184   50.8282   46.2931 H   0  0  0  0  0  0  0  0  0  0  0  0
  3  2  1  0
  1  3  1  1
  4  2  1  0
  5  4  1  0
  6  4  1  0
  6  7  1  0
  8  6  1  0
  8  9  1  0
 10  8  1  0
 10  5  1  0
 10 12  1  0
 13  1  2  0
 14 11  2  0
 15 11  1  0
 16 11  1  0
 17 12  1  0
 16 18  1  6
 18  1  1  0
 19  1  1  0
 20 17  2  0
 21 16  1  0
 22 17  1  0
 23 21  1  0
 24 22  2  0
 25 24  1  0
 23 26  1  0
 27 23  1  0
 28 24  1  0
 27 29  1  0
 30 27  1  0
 31 28  2  0
 31 12  1  0
 30 32  1  0
 32 16  1  0
 33 30  1  0
 33 34  1  0
 35 33  1  0
 36 35  1  0
  2 37  1  0
  2 38  1  0
  4 39  1  1
  6 40  1  6
  7 41  1  0
  8 42  1  6
  9 43  1  0
 10 44  1  1
 15 45  1  0
 19 46  1  0
 21 47  1  0
 21 48  1  0
 23 49  1  1
 25 50  1  0
 25 51  1  0
 26 52  1  0
 27 53  1  1
 28 54  1  0
 29 55  1  0
 30 56  1  1
 31 57  1  0
 33 58  1  6
 34 59  1  0
 35 60  1  0
 35 61  1  0
 36 62  1  0
M  END
