
     RDKit          3D

 62 64  0  0  0  0  0  0  0  0999 V2000
   71.5733   47.3654    2.8893 P   0  0  2  0  0  0  0  0  0  0  0  0
   73.9316   47.3297    1.8951 C   0  0  0  0  0  0  0  0  0  0  0  0
   72.6299   47.8188    1.6632 O   0  0  0  0  0  0  0  0  0  0  0  0
   74.5107   46.8695    0.5539 C   0  0  1  0  0  0  0  0  0  0  0  0
   74.2840   45.4761    0.4230 O   0  0  0  0  0  0  0  0  0  0  0  0
   73.8504   47.5902   -0.6426 C   0  0  1  0  0  0  0  0  0  0  0  0
   74.8028   47.9693   -1.6093 O   0  0  0  0  0  0  0  0  0  0  0  0
   72.8875   46.5452   -1.1625 C   0  0  1  0  0  0  0  0  0  0  0  0
   72.6468   46.6705   -2.5390 O   0  0  0  0  0  0  0  0  0  0  0  0
   73.6287   45.2641   -0.8103 C   0  0  2  0  0  0  0  0  0  0  0  0
   70.6845   50.2378    3.3488 C   0  0  0  0  0  0  0  0  0  0  0  0
   72.7119   44.1130   -0.7214 N   0  0  0  0  0  0  0  0  0  0  0  0
   70.1569   47.4934    2.3691 O   0  0  0  0  0  0  0  0  0  0  0  0
   70.7778   50.3258    2.0946 O   0  0  0  0  0  0  0  0  0  0  0  0
   69.5380   50.6843    3.9814 O   0  0  0  0  0  0  0  0  0  0  0  0
   71.8592   49.7036    4.1533 C   0  0  2  0  0  0  0  0  0  0  0  0
   72.6346   43.3506    0.4163 C   0  0  0  0  0  0  0  0  0  0  0  0
   71.8392   48.2921    4.2787 O   0  0  0  0  0  0  0  0  0  0  0  0
   71.8728   45.7815    3.3716 O   0  0  0  0  0  0  0  0  0  0  0  0
   73.3417   43.6155    1.4204 O   0  0  0  0  0  0  0  0  0  0  0  0
   71.7971   50.1410    5.6387 C   0  0  0  0  0  0  0  0  0  0  0  0
   71.7884   42.2951    0.4790 N   0  0  0  0  0  0  0  0  0  0  0  0
   72.1124   51.6188    5.8585 C   0  0  1  0  0  0  0  0  0  0  0  0
   71.0044   41.9628   -0.5717 C   0  0  0  0  0  0  0  0  0  0  0  0
   70.1250   40.8525   -0.4687 N   0  0  0  0  0  0  0  0  0  0  0  0
   72.2446   51.8759    7.2320 O   0  0  0  0  0  0  0  0  0  0  0  0
   73.4022   51.9935    5.1230 C   0  0  1  0  0  0  0  0  0  0  0  0
   71.0630   42.7113   -1.7422 C   0  0  0  0  0  0  0  0  0  0  0  0
   74.5035   51.3291    5.7031 O   0  0  0  0  0  0  0  0  0  0  0  0
   73.2233   51.5685    3.6544 C   0  0  2  0  0  0  0  0  0  0  0  0
   71.9318   43.7932   -1.7952 C   0  0  0  0  0  0  0  0  0  0  0  0
   73.0917   50.1448    3.5800 O   0  0  0  0  0  0  0  0  0  0  0  0
   74.3616   52.0789    2.7493 C   0  0  2  0  0  0  0  0  0  0  0  0
   74.0244   53.3557    2.2570 O   0  0  0  0  0  0  0  0  0  0  0  0
   74.6151   51.1471    1.5564 C   0  0  0  0  0  0  0  0  0  0  0  0
   73.4143   50.8318    0.8991 O   0  0  0  0  0  0  0  0  0  0  0  0
   74.5623   48.1303    2.3217 H   0  0  0  0  0  0  0  0  0  0  0  0
   73.9883   46.4709    2.6015 H   0  0  0  0  0  0  0  0  0  0  0  0
   75.6077   47.0546    0.5660 H   0  0  0  0  0  0  0  0  0  0  0  0
   73.2944   48.4995   -0.3447 H   0  0  0  0  0  0  0  0  0  0  0  0
   75.2461   47.1529   -1.9580 H   0  0  0  0  0  0  0  0  0  0  0  0
   71.9262   46.6244   -0.6046 H   0  0  0  0  0  0  0  0  0  0  0  0
   71.9723   47.3915   -2.6408 H   0  0  0  0  0  0  0  0  0  0  0  0
   74.4186   45.0792   -1.5725 H   0  0  0  0  0  0  0  0  0  0  0  0
   69.5559   51.5090    4.5692 H   0  0  0  0  0  0  0  0  0  0  0  0
   71.0289   45.4811    3.7941 H   0  0  0  0  0  0  0  0  0  0  0  0
   72.5394   49.5474    6.2209 H   0  0  0  0  0  0  0  0  0  0  0  0
   70.7994   49.9049    6.0707 H   0  0  0  0  0  0  0  0  0  0  0  0
   71.2788   52.2372    5.4485 H   0  0  0  0  0  0  0  0  0  0  0  0
   70.0837   40.2940    0.4126 H   0  0  0  0  0  0  0  0  0  0  0  0
   69.5096   40.5778   -1.2667 H   0  0  0  0  0  0  0  0  0  0  0  0
   71.5452   51.3428    7.6932 H   0  0  0  0  0  0  0  0  0  0  0  0
   73.5253   53.1005    5.1916 H   0  0  0  0  0  0  0  0  0  0  0  0
   70.4450   42.4642   -2.5964 H   0  0  0  0  0  0  0  0  0  0  0  0
   75.0258   52.0103    6.2011 H   0  0  0  0  0  0  0  0  0  0  0  0
   72.3147   52.0794    3.2620 H   0  0  0  0  0  0  0  0  0  0  0  0
   71.9743   44.3787   -2.7025 H   0  0  0  0  0  0  0  0  0  0  0  0
   75.3156   52.1255    3.3252 H   0  0  0  0  0  0  0  0  0  0  0  0
   73.8998   53.9482    3.0435 H   0  0  0  0  0  0  0  0  0  0  0  0
   75.1118   50.2212    1.8955 H   0  0  0  0  0  0  0  0  0  0  0  0
   75.3196   51.6539    0.8564 H   0  0  0  0  0  0  0  0  0  0  0  0
   73.5273   51.1040   -0.0482 H   0  0  0  0  0  0  0  0  0  0  0  0
  1  3  1  6
  3  2  1  0
  4  2  1  0
  5  4  1  0
  6  4  1  0
  6  7  1  0
  8  6  1  0
  8  9  1  0
 10  8  1  0
 10  5  1  0
 10 12  1  0
 13  1  2  0
 14 11  2  0
 15 11  1  0
 16 11  1  0
 17 12  1  0
 18  1  1  0
 16 18  1  1
 19  1  1  0
 20 17  2  0
 21 16  1  0
 22 17  1  0
 23 21  1  0
 24 22  2  0
 25 24  1  0
 23 26  1  0
 27 23  1  0
 28 24  1  0
 27 29  1  0
 30 27  1  0
 31 28  2  0
 31 12  1  0
 32 16  1  0
 30 32  1  0
 33 30  1  0
 33 34  1  0
 35 33  1  0
 36 35  1  0
  2 37  1  0
  2 38  1  0
  4 39  1  1
  6 40  1  1
  7 41  1  0
  8 42  1  1
  9 43  1  0
 10 44  1  6
 15 45  1  0
 19 46  1  0
 21 47  1  0
 21 48  1  0
 23 49  1  6
 25 50  1  0
 25 51  1  0
 26 52  1  0
 27 53  1  6
 28 54  1  0
 29 55  1  0
 30 56  1  6
 31 57  1  0
 33 58  1  1
 34 59  1  0
 35 60  1  0
 35 61  1  0
 36 62  1  0
M  END
