
     RDKit          3D

 85 88  0  0  0  0  0  0  0  0999 V2000
   29.9334    6.1564   36.0067 C   0  0  0  0  0  0  0  0  0  0  0  0
   29.2450    6.5201   34.6890 C   0  0  2  0  0  0  0  0  0  0  0  0
   28.4466    5.4107   34.1397 N   0  0  0  0  0  0  0  0  0  0  0  0
   29.2414    4.2295   33.7698 C   0  0  0  0  0  0  0  0  0  0  0  0
   28.4810    3.4228   32.7125 C   0  0  1  0  0  0  0  0  0  0  0  0
   28.1816    4.2736   31.6354 O   0  0  0  0  0  0  0  0  0  0  0  0
   29.3251    2.2305   32.2270 C   0  0  2  0  0  0  0  0  0  0  0  0
   28.6714    1.4873   31.0493 C   0  0  0  0  0  0  0  0  0  0  0  0
   29.3267    0.1514   30.7795 C   0  0  0  0  0  0  0  0  0  0  0  0
   30.7119    0.0543   30.5571 C   0  0  0  0  0  0  0  0  0  0  0  0
   31.3002   -1.1892   30.3134 C   0  0  0  0  0  0  0  0  0  0  0  0
   30.5126   -2.3409   30.2730 C   0  0  0  0  0  0  0  0  0  0  0  0
   29.1364   -2.2521   30.4840 C   0  0  0  0  0  0  0  0  0  0  0  0
   28.5454   -1.0135   30.7392 C   0  0  0  0  0  0  0  0  0  0  0  0
   29.5056    1.3050   33.3319 N   0  0  0  0  0  0  0  0  0  0  0  0
   30.7516    1.1466   33.9948 C   0  0  0  0  0  0  0  0  0  0  0  0
   31.6795    1.9896   33.8520 O   0  0  0  0  0  0  0  0  0  0  0  0
   30.9130    0.0019   34.8707 C   0  0  0  0  0  0  0  0  0  0  0  0
   30.2554   -1.2023   34.5818 C   0  0  0  0  0  0  0  0  0  0  0  0
   30.3653   -2.2824   35.4520 C   0  0  0  0  0  0  0  0  0  0  0  0
   31.1242   -2.1613   36.6133 C   0  0  0  0  0  0  0  0  0  0  0  0
   31.7751   -0.9506   36.9036 C   0  0  0  0  0  0  0  0  0  0  0  0
   31.6691    0.1243   36.0263 C   0  0  0  0  0  0  0  0  0  0  0  0
   32.5970   -0.8020   38.0574 N   0  0  0  0  0  0  0  0  0  0  0  0
   33.9335   -0.3567   37.8933 C   0  0  0  0  0  0  0  0  0  0  0  0
   34.8491   -1.1697   37.2202 C   0  0  0  0  0  0  0  0  0  0  0  0
   36.1624   -0.7401   37.0579 C   0  0  0  0  0  0  0  0  0  0  0  0
   36.5568    0.5004   37.5648 C   0  0  0  0  0  0  0  0  0  0  0  0
   35.6385    1.3128   38.2354 C   0  0  0  0  0  0  0  0  0  0  0  0
   34.3240    0.8838   38.4030 C   0  0  0  0  0  0  0  0  0  0  0  0
   32.1869   -1.5262   39.5550 S   0  0  0  0  0  0  0  0  0  0  0  0
   33.6323   -2.3396   40.1713 C   0  0  0  0  0  0  0  0  0  0  0  0
   31.0800   -2.5165   39.3427 O   0  0  0  0  0  0  0  0  0  0  0  0
   31.7712   -0.4540   40.5186 O   0  0  0  0  0  0  0  0  0  0  0  0
   30.2099    7.0313   33.6595 C   0  0  0  0  0  0  0  0  0  0  0  0
   31.4367    6.7341   33.7050 O   0  0  0  0  0  0  0  0  0  0  0  0
   29.6919    7.7985   32.5800 N   0  0  0  0  0  0  0  0  0  0  0  0
   30.5136    8.7429   31.8403 C   0  0  0  0  0  0  0  0  0  0  0  0
   29.6937   10.0054   31.5618 C   0  0  0  0  0  0  0  0  0  0  0  0
   30.5374   11.0557   30.8379 C   0  0  0  0  0  0  0  0  0  0  0  0
   31.7991   11.3855   31.6406 C   0  0  0  0  0  0  0  0  0  0  0  0
   32.6155   10.1175   31.9128 C   0  0  0  0  0  0  0  0  0  0  0  0
   31.7701    9.0764   32.6512 C   0  0  0  0  0  0  0  0  0  0  0  0
   30.4410    7.0503   36.4285 H   0  0  0  0  0  0  0  0  0  0  0  0
   29.1810    5.8043   36.7438 H   0  0  0  0  0  0  0  0  0  0  0  0
   30.6900    5.3565   35.8610 H   0  0  0  0  0  0  0  0  0  0  0  0
   28.5451    7.3527   34.9229 H   0  0  0  0  0  0  0  0  0  0  0  0
   27.7249    5.1264   34.8438 H   0  0  0  0  0  0  0  0  0  0  0  0
   29.4146    3.6032   34.6730 H   0  0  0  0  0  0  0  0  0  0  0  0
   30.2297    4.5080   33.3490 H   0  0  0  0  0  0  0  0  0  0  0  0
   27.5386    3.0443   33.1785 H   0  0  0  0  0  0  0  0  0  0  0  0
   27.2241    4.1384   31.4106 H   0  0  0  0  0  0  0  0  0  0  0  0
   30.3077    2.6153   31.8729 H   0  0  0  0  0  0  0  0  0  0  0  0
   28.7471    2.1079   30.1303 H   0  0  0  0  0  0  0  0  0  0  0  0
   27.5888    1.3461   31.2643 H   0  0  0  0  0  0  0  0  0  0  0  0
   31.3362    0.9380   30.5671 H   0  0  0  0  0  0  0  0  0  0  0  0
   32.3675   -1.2587   30.1474 H   0  0  0  0  0  0  0  0  0  0  0  0
   30.9696   -3.3027   30.0794 H   0  0  0  0  0  0  0  0  0  0  0  0
   28.5268   -3.1459   30.4541 H   0  0  0  0  0  0  0  0  0  0  0  0
   27.4762   -0.9667   30.9043 H   0  0  0  0  0  0  0  0  0  0  0  0
   28.6703    0.7778   33.6772 H   0  0  0  0  0  0  0  0  0  0  0  0
   29.6680   -1.3133   33.6786 H   0  0  0  0  0  0  0  0  0  0  0  0
   29.8652   -3.2151   35.2248 H   0  0  0  0  0  0  0  0  0  0  0  0
   31.2075   -3.0142   37.2693 H   0  0  0  0  0  0  0  0  0  0  0  0
   32.1626    1.0615   36.2574 H   0  0  0  0  0  0  0  0  0  0  0  0
   34.5444   -2.1322   36.8282 H   0  0  0  0  0  0  0  0  0  0  0  0
   36.8770   -1.3658   36.5391 H   0  0  0  0  0  0  0  0  0  0  0  0
   37.5783    0.8343   37.4368 H   0  0  0  0  0  0  0  0  0  0  0  0
   35.9486    2.2737   38.6252 H   0  0  0  0  0  0  0  0  0  0  0  0
   33.6113    1.5135   38.9206 H   0  0  0  0  0  0  0  0  0  0  0  0
   34.0367   -3.0421   39.4167 H   0  0  0  0  0  0  0  0  0  0  0  0
   33.3749   -2.9012   41.0927 H   0  0  0  0  0  0  0  0  0  0  0  0
   34.4075   -1.5831   40.4118 H   0  0  0  0  0  0  0  0  0  0  0  0
   28.6689    7.7454   32.3683 H   0  0  0  0  0  0  0  0  0  0  0  0
   30.8172    8.3088   30.8607 H   0  0  0  0  0  0  0  0  0  0  0  0
   29.3128   10.4349   32.5153 H   0  0  0  0  0  0  0  0  0  0  0  0
   28.8169    9.7451   30.9293 H   0  0  0  0  0  0  0  0  0  0  0  0
   30.8207   10.6809   29.8296 H   0  0  0  0  0  0  0  0  0  0  0  0
   29.9362   11.9804   30.7028 H   0  0  0  0  0  0  0  0  0  0  0  0
   32.4209   12.1057   31.0665 H   0  0  0  0  0  0  0  0  0  0  0  0
   31.5179   11.8664   32.6035 H   0  0  0  0  0  0  0  0  0  0  0  0
   33.4992   10.3782   32.5342 H   0  0  0  0  0  0  0  0  0  0  0  0
   32.9853    9.6932   30.9532 H   0  0  0  0  0  0  0  0  0  0  0  0
   32.3735    8.1540   32.7961 H   0  0  0  0  0  0  0  0  0  0  0  0
   31.4878    9.4662   33.6547 H   0  0  0  0  0  0  0  0  0  0  0  0
  2  1  1  0
  3  2  1  0
  4  3  1  0
  5  4  1  0
  5  6  1  0
  7  5  1  0
  7  8  1  0
  9  8  1  0
 10  9  2  0
 11 10  1  0
 12 11  2  0
 13 12  1  0
 14 13  2  0
 14  9  1  0
 15  7  1  0
 16 15  1  0
 17 16  2  0
 18 16  1  0
 19 18  2  0
 20 19  1  0
 21 20  2  0
 22 21  1  0
 23 22  2  0
 23 18  1  0
 24 22  1  0
 25 24  1  0
 26 25  2  0
 27 26  1  0
 28 27  2  0
 29 28  1  0
 30 29  2  0
 30 25  1  0
 31 24  1  0
 31 32  1  0
 33 31  2  0
 34 31  2  0
 35  2  1  0
 36 35  2  0
 37 35  1  0
 38 37  1  0
 39 38  1  0
 40 39  1  0
 41 40  1  0
 42 41  1  0
 43 42  1  0
 43 38  1  0
  1 44  1  0
  1 45  1  0
  1 46  1  0
  2 47  1  1
  3 48  1  0
  4 49  1  0
  4 50  1  0
  5 51  1  1
  6 52  1  0
  7 53  1  6
  8 54  1  0
  8 55  1  0
 10 56  1  0
 11 57  1  0
 12 58  1  0
 13 59  1  0
 14 60  1  0
 15 61  1  0
 19 62  1  0
 20 63  1  0
 21 64  1  0
 23 65  1  0
 26 66  1  0
 27 67  1  0
 28 68  1  0
 29 69  1  0
 30 70  1  0
 32 71  1  0
 32 72  1  0
 32 73  1  0
 37 74  1  0
 38 75  1  0
 39 76  1  0
 39 77  1  0
 40 78  1  0
 40 79  1  0
 41 80  1  0
 41 81  1  0
 42 82  1  0
 42 83  1  0
 43 84  1  0
 43 85  1  0
M  END
