
     RDKit          3D

 36 36  0  0  0  0  0  0  0  0999 V2000
   19.9495   10.8600   13.8290 C   0  0  0  0  0  0  0  0  0  0  0  0
   19.6235    9.3991   13.7762 C   0  0  0  0  0  0  0  0  0  0  0  0
   19.0087    9.0047   12.4243 C   0  0  0  0  0  0  0  0  0  0  0  0
   18.3165    7.7039   12.3369 C   0  0  0  0  0  0  0  0  0  0  0  0
   19.1595    6.5018   11.9551 C   0  0  0  0  0  0  0  0  0  0  0  0
   17.8476    4.0392   14.4024 C   0  0  0  0  0  0  0  0  0  0  0  0
   14.4301    3.3296   18.2682 O   0  0  0  0  0  0  0  0  0  0  0  0
   17.2212    3.2277   16.6021 C   0  0  0  0  0  0  0  0  0  0  0  0
   13.5235    1.9349   16.4399 O   0  0  0  0  0  0  0  0  0  0  0  0
   18.1736    3.7603   15.7452 C   0  0  0  0  0  0  0  0  0  0  0  0
   15.4176    0.9091   17.9525 N   0  0  0  0  0  0  0  0  0  0  0  0
   15.9298    2.9827   16.1333 C   0  0  0  0  0  0  0  0  0  0  0  0
   16.5404    3.8113   13.9470 C   0  0  0  0  0  0  0  0  0  0  0  0
   15.5848    3.2889   14.8104 C   0  0  0  0  0  0  0  0  0  0  0  0
   18.8573    4.5563   13.4716 C   0  0  0  0  0  0  0  0  0  0  0  0
   18.4639    5.2928   12.3188 N   0  0  0  0  0  0  0  0  0  0  0  0
   20.0845    4.3828   13.7107 O   0  0  0  0  0  0  0  0  0  0  0  0
   17.0236    7.5779   12.4213 F   0  0  0  0  0  0  0  0  0  0  0  0
   17.9789    7.5802   13.4952 F   0  0  0  0  0  0  0  0  0  0  0  0
   19.7987    9.0886   11.4670 F   0  0  0  0  0  0  0  0  0  0  0  0
   18.6636    9.9162   11.5988 F   0  0  0  0  0  0  0  0  0  0  0  0
   20.8285    8.7656   14.0769 F   0  0  0  0  0  0  0  0  0  0  0  0
   18.6866    9.0522   14.7132 F   0  0  0  0  0  0  0  0  0  0  0  0
   18.7669   11.5421   14.0873 F   0  0  0  0  0  0  0  0  0  0  0  0
   20.4464   11.2380   12.6034 F   0  0  0  0  0  0  0  0  0  0  0  0
   20.8893   11.0823   14.8155 F   0  0  0  0  0  0  0  0  0  0  0  0
   14.7525    2.3117   17.2157 S   0  0  0  0  0  0  0  0  0  0  0  0
   20.1404    6.5354   12.4815 H   0  0  0  0  0  0  0  0  0  0  0  0
   19.3714    6.5060   10.8635 H   0  0  0  0  0  0  0  0  0  0  0  0
   17.4850    3.0225   17.6320 H   0  0  0  0  0  0  0  0  0  0  0  0
   19.1429    3.9798   16.1647 H   0  0  0  0  0  0  0  0  0  0  0  0
   14.6481    0.4552   18.4939 H   0  0  0  0  0  0  0  0  0  0  0  0
   16.1238    1.2295   18.6521 H   0  0  0  0  0  0  0  0  0  0  0  0
   16.2575    4.0238   12.9233 H   0  0  0  0  0  0  0  0  0  0  0  0
   14.5820    3.1153   14.4424 H   0  0  0  0  0  0  0  0  0  0  0  0
   17.5471    5.1226   11.8525 H   0  0  0  0  0  0  0  0  0  0  0  0
  2  1  1  0
  3  2  1  0
  4  3  1  0
  5  4  1  0
 10  8  1  0
 10  6  2  0
 12  8  2  0
 13  6  1  0
 14 13  2  0
 14 12  1  0
 15  6  1  0
 16 15  1  0
 16  5  1  0
 17 15  2  0
  4 18  1  0
 19  4  1  0
  3 20  1  0
 21  3  1  0
  2 22  1  0
 23  2  1  0
  1 24  1  0
 25  1  1  0
 26  1  1  0
 27 12  1  0
 27 11  1  0
 27  9  2  0
 27  7  2  0
  5 28  1  0
  5 29  1  0
  8 30  1  0
 10 31  1  0
 11 32  1  0
 11 33  1  0
 13 34  1  0
 14 35  1  0
 16 36  1  0
M  END
