
     RDKit          3D

 29 31  0  0  0  0  0  0  0  0999 V2000
  -13.9966  -26.3517    3.8614 C   0  0  0  0  0  0  0  0  0  0  0  0
  -12.8059  -25.9969    3.1788 N   0  0  0  0  0  0  0  0  0  0  0  0
  -17.5903  -26.0152    3.2417 O   0  0  0  0  0  0  0  0  0  0  0  0
  -16.3876  -26.3541    3.8903 C   0  0  0  0  0  0  0  0  0  0  0  0
  -15.2009  -26.0327    3.3029 N   0  0  0  0  0  0  0  0  0  0  0  0
  -17.6275  -25.7041    1.8366 C   0  0  0  0  0  0  0  0  0  0  0  0
  -17.2871  -27.4841    5.9542 N   0  0  0  0  0  0  0  0  0  0  0  0
  -19.0300  -25.3913    1.3745 C   0  0  0  0  0  0  0  0  0  0  0  0
  -15.2418  -27.9683    6.8356 N   0  0  0  0  0  0  0  0  0  0  0  0
  -19.8086  -26.3826    0.7484 C   0  0  0  0  0  0  0  0  0  0  0  0
  -13.9321  -27.0074    5.0589 N   0  0  0  0  0  0  0  0  0  0  0  0
  -21.1053  -26.0944    0.3057 C   0  0  0  0  0  0  0  0  0  0  0  0
  -21.6382  -24.8167    0.4920 C   0  0  0  0  0  0  0  0  0  0  0  0
  -20.8721  -23.8249    1.1131 C   0  0  0  0  0  0  0  0  0  0  0  0
  -19.5717  -24.1072    1.5499 C   0  0  0  0  0  0  0  0  0  0  0  0
  -16.3170  -27.0347    5.1293 C   0  0  0  0  0  0  0  0  0  0  0  0
  -16.5877  -28.0460    6.9859 C   0  0  0  0  0  0  0  0  0  0  0  0
  -15.0969  -27.3305    5.6678 C   0  0  0  0  0  0  0  0  0  0  0  0
  -12.8506  -25.5482    2.2371 H   0  0  0  0  0  0  0  0  0  0  0  0
  -11.8729  -26.1806    3.6103 H   0  0  0  0  0  0  0  0  0  0  0  0
  -17.2446  -26.5644    1.2444 H   0  0  0  0  0  0  0  0  0  0  0  0
  -16.9565  -24.8410    1.6360 H   0  0  0  0  0  0  0  0  0  0  0  0
  -14.4986  -28.3219    7.4780 H   0  0  0  0  0  0  0  0  0  0  0  0
  -19.4104  -27.3792    0.6031 H   0  0  0  0  0  0  0  0  0  0  0  0
  -21.6965  -26.8626   -0.1757 H   0  0  0  0  0  0  0  0  0  0  0  0
  -22.6420  -24.5938    0.1541 H   0  0  0  0  0  0  0  0  0  0  0  0
  -21.2853  -22.8347    1.2550 H   0  0  0  0  0  0  0  0  0  0  0  0
  -18.9907  -23.3286    2.0285 H   0  0  0  0  0  0  0  0  0  0  0  0
  -17.0635  -28.5111    7.8391 H   0  0  0  0  0  0  0  0  0  0  0  0
  2  1  1  0
  4  3  1  0
  5  4  1  0
  5  1  2  0
  6  3  1  0
  8  6  1  0
 10  8  2  0
 11  1  1  0
 12 10  1  0
 13 12  2  0
 14 13  1  0
 15 14  2  0
 15  8  1  0
 16  7  1  0
 16  4  2  0
 17  7  2  0
 17  9  1  0
 18 16  1  0
 18 11  2  0
 18  9  1  0
  2 19  1  0
  2 20  1  0
  6 21  1  0
  6 22  1  0
  9 23  1  0
 10 24  1  0
 12 25  1  0
 13 26  1  0
 14 27  1  0
 15 28  1  0
 17 29  1  0
M  END
