
     RDKit          3D

 32 32  0  0  0  0  0  0  0  0999 V2000
  -15.2501   -0.6593  -19.5024 N   0  0  0  0  0  0  0  0  0  0  0  0
  -17.5496    0.7745  -18.6322 C   0  0  0  0  0  0  0  0  0  0  0  0
  -17.5717   -0.8286  -20.7327 O   0  0  0  0  0  0  0  0  0  0  0  0
  -18.3182    1.9417  -18.7551 C   0  0  0  0  0  0  0  0  0  0  0  0
  -16.3066    1.2799  -20.9205 O   0  0  0  0  0  0  0  0  0  0  0  0
  -19.0432    2.4235  -17.6596 C   0  0  0  0  0  0  0  0  0  0  0  0
  -21.2175    5.6882  -14.4121 O   0  0  0  0  0  0  0  0  0  0  0  0
  -19.0140    1.7389  -16.4316 C   0  0  0  0  0  0  0  0  0  0  0  0
  -20.3062    3.9978  -13.1355 O   0  0  0  0  0  0  0  0  0  0  0  0
  -18.2320    0.5779  -16.3119 C   0  0  0  0  0  0  0  0  0  0  0  0
  -17.5104    0.0942  -17.4084 C   0  0  0  0  0  0  0  0  0  0  0  0
  -19.8358    2.2300  -15.2635 C   0  0  0  0  0  0  0  0  0  0  0  0
  -20.3925    3.6333  -15.5215 C   0  0  0  0  0  0  0  0  0  0  0  0
  -20.6269    4.4352  -14.2744 C   0  0  0  0  0  0  0  0  0  0  0  0
  -21.5031    6.5255  -13.3008 C   0  0  0  0  0  0  0  0  0  0  0  0
  -20.2213    7.2107  -12.8656 C   0  0  0  0  0  0  0  0  0  0  0  0
  -16.6828    0.1434  -20.0159 S   0  0  0  0  0  0  0  0  0  0  0  0
  -14.7232   -0.9247  -20.3645 H   0  0  0  0  0  0  0  0  0  0  0  0
  -15.5414   -1.5534  -19.0475 H   0  0  0  0  0  0  0  0  0  0  0  0
  -18.3674    2.4717  -19.6978 H   0  0  0  0  0  0  0  0  0  0  0  0
  -19.6413    3.3195  -17.7713 H   0  0  0  0  0  0  0  0  0  0  0  0
  -18.1933    0.0369  -15.3745 H   0  0  0  0  0  0  0  0  0  0  0  0
  -16.9320   -0.8135  -17.2993 H   0  0  0  0  0  0  0  0  0  0  0  0
  -20.6775    1.5235  -15.0918 H   0  0  0  0  0  0  0  0  0  0  0  0
  -19.2192    2.2412  -14.3376 H   0  0  0  0  0  0  0  0  0  0  0  0
  -19.6818    4.1932  -16.1670 H   0  0  0  0  0  0  0  0  0  0  0  0
  -21.3580    3.5515  -16.0661 H   0  0  0  0  0  0  0  0  0  0  0  0
  -21.9074    5.9159  -12.4640 H   0  0  0  0  0  0  0  0  0  0  0  0
  -22.2484    7.2990  -13.5886 H   0  0  0  0  0  0  0  0  0  0  0  0
  -19.5359    6.4668  -12.4077 H   0  0  0  0  0  0  0  0  0  0  0  0
  -20.4470    8.0009  -12.1183 H   0  0  0  0  0  0  0  0  0  0  0  0
  -19.7193    7.6705  -13.7432 H   0  0  0  0  0  0  0  0  0  0  0  0
  4  2  2  0
  6  4  1  0
  8  6  2  0
 10  8  1  0
 11 10  2  0
 11  2  1  0
 12  8  1  0
 13 12  1  0
 14 13  1  0
 14  9  2  0
 14  7  1  0
 15  7  1  0
 16 15  1  0
 17  5  2  0
 17  2  1  0
 17  3  2  0
 17  1  1  0
  1 18  1  0
  1 19  1  0
  4 20  1  0
  6 21  1  0
 10 22  1  0
 11 23  1  0
 12 24  1  0
 12 25  1  0
 13 26  1  0
 13 27  1  0
 15 28  1  0
 15 29  1  0
 16 30  1  0
 16 31  1  0
 16 32  1  0
M  END
