
     RDKit          3D

 17 17  0  0  0  0  0  0  0  0999 V2000
   24.8359   39.1197   72.2862 N   0  0  0  0  0  0  0  0  0  0  0  0
   25.3600   37.8073   72.3194 C   0  0  0  0  0  0  0  0  0  0  0  0
   24.5862   36.8211   72.3117 O   0  0  0  0  0  0  0  0  0  0  0  0
   26.7645   37.6222   72.2962 N   0  0  0  0  0  0  0  0  0  0  0  0
   27.5650   38.6397   71.7031 C   0  0  0  0  0  0  0  0  0  0  0  0
   28.7235   38.3640   71.3027 O   0  0  0  0  0  0  0  0  0  0  0  0
   26.9918   40.0053   71.4498 C   0  0  0  0  0  0  0  0  0  0  0  0
   25.7516   40.2566   72.3340 C   0  0  1  0  0  0  0  0  0  0  0  0
   25.0486   41.4962   71.8924 C   0  0  0  0  0  0  0  0  0  0  0  0
   24.5825   41.6063   70.7260 O   0  0  0  0  0  0  0  0  0  0  0  0
   24.9144   42.5368   72.7872 O   0  0  0  0  0  0  0  0  0  0  0  0
   23.8116   39.2426   72.4578 H   0  0  0  0  0  0  0  0  0  0  0  0
   27.1674   36.6720   72.4595 H   0  0  0  0  0  0  0  0  0  0  0  0
   27.7648   40.7767   71.6590 H   0  0  0  0  0  0  0  0  0  0  0  0
   26.7104   40.0683   70.3757 H   0  0  0  0  0  0  0  0  0  0  0  0
   26.0831   40.3980   73.3863 H   0  0  0  0  0  0  0  0  0  0  0  0
   25.4864   43.3690   72.7072 H   0  0  0  0  0  0  0  0  0  0  0  0
  2  1  1  0
  3  2  2  0
  4  2  1  0
  5  4  1  0
  6  5  2  0
  7  5  1  0
  8  1  1  0
  8  7  1  0
  8  9  1  0
 10  9  2  0
 11  9  1  0
  1 12  1  0
  4 13  1  0
  7 14  1  0
  7 15  1  0
  8 16  1  1
 11 17  1  0
M  END
