
     RDKit          3D

 17 17  0  0  0  0  0  0  0  0999 V2000
   24.8959   39.3835   72.1005 N   0  0  0  0  0  0  0  0  0  0  0  0
   25.4199   38.0711   72.1337 C   0  0  0  0  0  0  0  0  0  0  0  0
   24.6462   37.0849   72.1260 O   0  0  0  0  0  0  0  0  0  0  0  0
   26.8244   37.8860   72.1104 N   0  0  0  0  0  0  0  0  0  0  0  0
   27.6249   38.9035   71.5173 C   0  0  0  0  0  0  0  0  0  0  0  0
   28.7834   38.6279   71.1170 O   0  0  0  0  0  0  0  0  0  0  0  0
   27.0517   40.2691   71.2641 C   0  0  0  0  0  0  0  0  0  0  0  0
   25.8115   40.5204   72.1483 C   0  0  1  0  0  0  0  0  0  0  0  0
   25.1086   41.7600   71.7067 C   0  0  0  0  0  0  0  0  0  0  0  0
   25.6998   42.6437   71.0288 O   0  0  0  0  0  0  0  0  0  0  0  0
   23.7856   41.9320   72.0554 O   0  0  0  0  0  0  0  0  0  0  0  0
   23.8716   39.5064   72.2720 H   0  0  0  0  0  0  0  0  0  0  0  0
   27.2273   36.9358   72.2738 H   0  0  0  0  0  0  0  0  0  0  0  0
   27.8248   41.0405   71.4732 H   0  0  0  0  0  0  0  0  0  0  0  0
   26.7703   40.3322   70.1900 H   0  0  0  0  0  0  0  0  0  0  0  0
   26.1430   40.6618   73.2006 H   0  0  0  0  0  0  0  0  0  0  0  0
   23.2800   42.7667   71.7835 H   0  0  0  0  0  0  0  0  0  0  0  0
  2  1  1  0
  3  2  2  0
  4  2  1  0
  5  4  1  0
  6  5  2  0
  7  5  1  0
  8  1  1  0
  8  7  1  0
  8  9  1  0
 10  9  2  0
 11  9  1  0
  1 12  1  0
  4 13  1  0
  7 14  1  0
  7 15  1  0
  8 16  1  1
 11 17  1  0
M  END
