
     RDKit          3D

 22 22  0  0  0  0  0  0  0  0999 V2000
   55.9627   13.3938   26.6841 C   0  0  0  0  0  0  0  0  0  0  0  0
   55.0649   13.4284   25.7974 O   0  0  0  0  0  0  0  0  0  0  0  0
   56.7931   14.4815   26.8587 O   0  0  0  0  0  0  0  0  0  0  0  0
   56.0999   12.2144   27.5564 C   0  0  0  0  0  0  0  0  0  0  0  0
   57.1831   12.0390   28.3472 C   0  0  0  0  0  0  0  0  0  0  0  0
   57.4169   10.7201   29.0523 C   0  0  1  0  0  0  0  0  0  0  0  0
   58.3415   10.8456   30.1047 O   0  0  0  0  0  0  0  0  0  0  0  0
   56.0818   10.1526   29.5665 C   0  0  1  0  0  0  0  0  0  0  0  0
   55.0796    9.9859   28.4118 C   0  0  1  0  0  0  0  0  0  0  0  0
   54.9299   11.2651   27.5680 C   0  0  0  0  0  0  0  0  0  0  0  0
   55.4475    8.9054   27.5885 O   0  0  0  0  0  0  0  0  0  0  0  0
   56.2597    8.9279   30.2373 O   0  0  0  0  0  0  0  0  0  0  0  0
   57.2543   14.6474   27.7453 H   0  0  0  0  0  0  0  0  0  0  0  0
   57.9818   12.7712   28.3456 H   0  0  0  0  0  0  0  0  0  0  0  0
   57.8469   10.0157   28.3072 H   0  0  0  0  0  0  0  0  0  0  0  0
   58.0669   10.2115   30.8184 H   0  0  0  0  0  0  0  0  0  0  0  0
   55.6495   10.8751   30.2948 H   0  0  0  0  0  0  0  0  0  0  0  0
   54.0895    9.7561   28.8740 H   0  0  0  0  0  0  0  0  0  0  0  0
   54.6710   10.9849   26.5233 H   0  0  0  0  0  0  0  0  0  0  0  0
   54.0590   11.8319   27.9649 H   0  0  0  0  0  0  0  0  0  0  0  0
   56.1391    8.3878   28.0787 H   0  0  0  0  0  0  0  0  0  0  0  0
   57.0836    8.4995   29.8861 H   0  0  0  0  0  0  0  0  0  0  0  0
  2  1  2  0
  3  1  1  0
  4  1  1  0
  5  4  2  0
  6  5  1  0
  6  7  1  0
  8  6  1  0
  9  8  1  0
 10  9  1  0
 10  4  1  0
  9 11  1  0
  8 12  1  0
  3 13  1  0
  5 14  1  0
  6 15  1  6
  7 16  1  0
  8 17  1  1
  9 18  1  1
 10 19  1  0
 10 20  1  0
 11 21  1  0
 12 22  1  0
M  END
