
     RDKit          3D

 35 37  0  0  0  0  0  0  0  0999 V2000
   34.2839  130.2916   53.3767 C   0  0  0  0  0  0  0  0  0  0  0  0
   33.8171  131.1445   51.8151 S   0  0  0  0  0  0  0  0  0  0  0  0
   34.2181  128.7629   53.2303 C   0  0  1  0  0  0  0  0  0  0  0  0
   35.0327  128.1261   54.1925 O   0  0  0  0  0  0  0  0  0  0  0  0
   32.8010  128.1717   53.3912 C   0  0  1  0  0  0  0  0  0  0  0  0
   32.3264  127.7466   52.1400 O   0  0  0  0  0  0  0  0  0  0  0  0
   33.0316  126.9853   54.3304 C   0  0  1  0  0  0  0  0  0  0  0  0
   32.3439  125.8197   53.9523 O   0  0  0  0  0  0  0  0  0  0  0  0
   34.5382  126.8118   54.2088 C   0  0  2  0  0  0  0  0  0  0  0  0
   38.0673  123.2608   55.5700 N   0  0  0  0  0  0  0  0  0  0  0  0
   37.8084  123.7697   54.3216 C   0  0  0  0  0  0  0  0  0  0  0  0
   36.8305  124.7117   54.1393 N   0  0  0  0  0  0  0  0  0  0  0  0
   36.1308  125.1273   55.2302 C   0  0  0  0  0  0  0  0  0  0  0  0
   36.3735  124.6401   56.4755 C   0  0  0  0  0  0  0  0  0  0  0  0
   37.3669  123.6773   56.6676 C   0  0  0  0  0  0  0  0  0  0  0  0
   37.6545  123.1408   57.9578 N   0  0  0  0  0  0  0  0  0  0  0  0
   35.5540  125.2177   57.3773 N   0  0  0  0  0  0  0  0  0  0  0  0
   34.8166  126.0718   56.6192 C   0  0  0  0  0  0  0  0  0  0  0  0
   35.1319  126.0309   55.2967 N   0  0  0  0  0  0  0  0  0  0  0  0
   32.0006  131.0750   51.9417 C   0  0  0  0  0  0  0  0  0  0  0  0
   35.3338  130.5813   53.5944 H   0  0  0  0  0  0  0  0  0  0  0  0
   33.6654  130.6497   54.2267 H   0  0  0  0  0  0  0  0  0  0  0  0
   34.6274  128.5073   52.2232 H   0  0  0  0  0  0  0  0  0  0  0  0
   32.0939  128.8987   53.8557 H   0  0  0  0  0  0  0  0  0  0  0  0
   33.1109  127.7227   51.5321 H   0  0  0  0  0  0  0  0  0  0  0  0
   32.7300  127.2962   55.3551 H   0  0  0  0  0  0  0  0  0  0  0  0
   32.4653  125.1699   54.6928 H   0  0  0  0  0  0  0  0  0  0  0  0
   34.7801  126.3008   53.2431 H   0  0  0  0  0  0  0  0  0  0  0  0
   38.3800  123.4210   53.4727 H   0  0  0  0  0  0  0  0  0  0  0  0
   38.6393  123.0344   58.2883 H   0  0  0  0  0  0  0  0  0  0  0  0
   36.8765  122.8472   58.5891 H   0  0  0  0  0  0  0  0  0  0  0  0
   34.0667  126.7224   57.0464 H   0  0  0  0  0  0  0  0  0  0  0  0
   31.6853  130.2396   52.6000 H   0  0  0  0  0  0  0  0  0  0  0  0
   31.6360  132.0278   52.3771 H   0  0  0  0  0  0  0  0  0  0  0  0
   31.5524  130.9581   50.9373 H   0  0  0  0  0  0  0  0  0  0  0  0
  2  1  1  0
  3  1  1  0
  4  3  1  0
  5  3  1  0
  5  6  1  0
  7  5  1  0
  7  8  1  0
  9  4  1  0
  9  7  1  0
 11 10  2  0
 12 11  1  0
 13 12  2  0
 14 13  1  0
 15 14  2  0
 15 10  1  0
 16 15  1  0
 17 14  1  0
 18 17  2  0
 19 13  1  0
  9 19  1  0
 19 18  1  0
 20  2  1  0
  1 21  1  0
  1 22  1  0
  3 23  1  6
  5 24  1  1
  6 25  1  0
  7 26  1  1
  8 27  1  0
  9 28  1  6
 11 29  1  0
 16 30  1  0
 16 31  1  0
 18 32  1  0
 20 33  1  0
 20 34  1  0
 20 35  1  0
M  END
