
     RDKit          3D

 35 37  0  0  0  0  0  0  0  0999 V2000
   33.2112  129.7145   53.7575 C   0  0  0  0  0  0  0  0  0  0  0  0
   32.7517  130.5640   52.1920 S   0  0  0  0  0  0  0  0  0  0  0  0
   33.1412  128.1855   53.6156 C   0  0  1  0  0  0  0  0  0  0  0  0
   34.3197  127.5769   54.1013 O   0  0  0  0  0  0  0  0  0  0  0  0
   31.9639  127.5326   54.3713 C   0  0  1  0  0  0  0  0  0  0  0  0
   30.9993  127.0971   53.4485 O   0  0  0  0  0  0  0  0  0  0  0  0
   32.6283  126.3500   55.0803 C   0  0  1  0  0  0  0  0  0  0  0  0
   31.8858  125.1587   55.0153 O   0  0  0  0  0  0  0  0  0  0  0  0
   33.9302  126.2424   54.3003 C   0  0  2  0  0  0  0  0  0  0  0  0
   37.8196  122.8364   53.8671 N   0  0  0  0  0  0  0  0  0  0  0  0
   37.0167  123.3433   52.8757 C   0  0  0  0  0  0  0  0  0  0  0  0
   36.0268  124.2437   53.1694 N   0  0  0  0  0  0  0  0  0  0  0  0
   35.8686  124.6203   54.4677 C   0  0  0  0  0  0  0  0  0  0  0  0
   36.6549  124.1344   55.4640 C   0  0  0  0  0  0  0  0  0  0  0  0
   37.6638  123.2138   55.1717 C   0  0  0  0  0  0  0  0  0  0  0  0
   38.5119  122.6802   56.1871 N   0  0  0  0  0  0  0  0  0  0  0  0
   36.3000  124.6690   56.6500 N   0  0  0  0  0  0  0  0  0  0  0  0
   35.2735  125.4964   56.3188 C   0  0  0  0  0  0  0  0  0  0  0  0
   34.9715  125.4794   54.9927 N   0  0  0  0  0  0  0  0  0  0  0  0
   30.9347  130.5004   52.3133 C   0  0  0  0  0  0  0  0  0  0  0  0
   34.2613  130.0016   53.9776 H   0  0  0  0  0  0  0  0  0  0  0  0
   32.5912  130.0770   54.6046 H   0  0  0  0  0  0  0  0  0  0  0  0
   33.0707  127.9556   52.5251 H   0  0  0  0  0  0  0  0  0  0  0  0
   31.5106  128.2248   55.1194 H   0  0  0  0  0  0  0  0  0  0  0  0
   30.5223  126.3374   53.8739 H   0  0  0  0  0  0  0  0  0  0  0  0
   32.8012  126.6396   56.1405 H   0  0  0  0  0  0  0  0  0  0  0  0
   32.3638  124.5648   54.3797 H   0  0  0  0  0  0  0  0  0  0  0  0
   33.7370  125.7498   53.3144 H   0  0  0  0  0  0  0  0  0  0  0  0
   37.1649  123.0261   51.8528 H   0  0  0  0  0  0  0  0  0  0  0  0
   39.3612  123.1979   56.5050 H   0  0  0  0  0  0  0  0  0  0  0  0
   38.2894  121.7593   56.6260 H   0  0  0  0  0  0  0  0  0  0  0  0
   34.7681  126.1109   57.0504 H   0  0  0  0  0  0  0  0  0  0  0  0
   30.5496  131.3686   52.8867 H   0  0  0  0  0  0  0  0  0  0  0  0
   30.5069  130.5318   51.2905 H   0  0  0  0  0  0  0  0  0  0  0  0
   30.6173  129.5560   52.7938 H   0  0  0  0  0  0  0  0  0  0  0  0
  2  1  1  0
  3  1  1  0
  4  3  1  0
  5  3  1  0
  5  6  1  0
  7  5  1  0
  7  8  1  0
  9  4  1  0
  9  7  1  0
 11 10  2  0
 12 11  1  0
 13 12  2  0
 14 13  1  0
 15 14  2  0
 15 10  1  0
 16 15  1  0
 17 14  1  0
 18 17  2  0
 19 13  1  0
  9 19  1  0
 19 18  1  0
 20  2  1  0
  1 21  1  0
  1 22  1  0
  3 23  1  6
  5 24  1  1
  6 25  1  0
  7 26  1  1
  8 27  1  0
  9 28  1  6
 11 29  1  0
 16 30  1  0
 16 31  1  0
 18 32  1  0
 20 33  1  0
 20 34  1  0
 20 35  1  0
M  END
