
     RDKit          3D

 24 26  0  0  0  0  0  0  0  0999 V2000
   18.1701   18.0103   16.0751 C   0  0  0  0  0  0  0  0  0  0  0  0
   19.0172   18.2466   17.1012 N   0  0  0  0  0  0  0  0  0  0  0  0
   18.3025   17.9100   18.1819 C   0  0  0  0  0  0  0  0  0  0  0  0
   17.0731   17.4655   17.7872 C   0  0  0  0  0  0  0  0  0  0  0  0
   16.9594   17.5316   16.4484 N   0  0  0  0  0  0  0  0  0  0  0  0
   18.4856   18.3299   14.7291 N   0  0  0  0  0  0  0  0  0  0  0  0
   18.6686   17.9974   19.5234 C   0  0  0  0  0  0  0  0  0  0  0  0
   17.6997   17.6348   20.4886 C   0  0  0  0  0  0  0  0  0  0  0  0
   17.9265   17.7695   21.8748 C   0  0  0  0  0  0  0  0  0  0  0  0
   19.0400   18.1637   22.3157 O   0  0  0  0  0  0  0  0  0  0  0  0
   16.9338   17.4753   22.7528 N   0  0  0  0  0  0  0  0  0  0  0  0
   15.7279   17.0221   22.3241 C   0  0  0  0  0  0  0  0  0  0  0  0
   15.4854   16.8571   21.0008 N   0  0  0  0  0  0  0  0  0  0  0  0
   16.4240   17.1552   20.0703 C   0  0  0  0  0  0  0  0  0  0  0  0
   16.1075   17.0571   18.7022 C   0  0  0  0  0  0  0  0  0  0  0  0
   14.6940   16.7643   23.2597 N   0  0  0  0  0  0  0  0  0  0  0  0
   19.9827   18.6432   17.0637 H   0  0  0  0  0  0  0  0  0  0  0  0
   17.7422   18.6654   14.0774 H   0  0  0  0  0  0  0  0  0  0  0  0
   19.4651   18.2340   14.3809 H   0  0  0  0  0  0  0  0  0  0  0  0
   19.6461   18.3702   19.8032 H   0  0  0  0  0  0  0  0  0  0  0  0
   17.1044   17.5967   23.7773 H   0  0  0  0  0  0  0  0  0  0  0  0
   15.1335   16.7191   18.3707 H   0  0  0  0  0  0  0  0  0  0  0  0
   13.8687   16.1804   22.9985 H   0  0  0  0  0  0  0  0  0  0  0  0
   14.7462   17.1588   24.2251 H   0  0  0  0  0  0  0  0  0  0  0  0
  2  1  1  0
  3  2  1  0
  4  3  2  0
  5  4  1  0
  5  1  2  0
  6  1  1  0
  7  3  1  0
  8  7  2  0
  9  8  1  0
 10  9  2  0
 11  9  1  0
 12 11  1  0
 13 12  2  0
 14 13  1  0
 14  8  1  0
 15 14  2  0
 15  4  1  0
 16 12  1  0
  2 17  1  0
  6 18  1  0
  6 19  1  0
  7 20  1  0
 11 21  1  0
 15 22  1  0
 16 23  1  0
 16 24  1  0
M  END
