
     RDKit          3D

 27 26  0  0  0  0  0  0  0  0999 V2000
  -26.6507   -1.7001  -16.1331 P   0  0  2  0  0  0  0  0  0  0  0  0
  -26.4719    1.1210  -15.9288 P   0  0  0  0  0  0  0  0  0  0  0  0
  -25.4103   -1.7371  -16.9951 O   0  0  0  0  0  0  0  0  0  0  0  0
  -27.7909   -2.7616  -16.7578 O   0  0  0  0  0  0  0  0  0  0  0  0
  -27.4613   -0.2230  -16.1525 O   0  0  0  0  0  0  0  0  0  0  0  0
  -25.3154    0.9272  -14.9770 O   0  0  0  0  0  0  0  0  0  0  0  0
  -25.9327    1.6075  -17.4401 O   0  0  0  0  0  0  0  0  0  0  0  0
  -27.5114    2.2933  -15.3332 O   0  0  0  0  0  0  0  0  0  0  0  0
  -30.2887   -1.4793  -13.8804 C   0  0  0  0  0  0  0  0  0  0  0  0
  -27.9093   -0.8983  -13.3278 C   0  0  0  0  0  0  0  0  0  0  0  0
  -27.3730   -2.2554  -13.7180 C   0  0  0  0  0  0  0  0  0  0  0  0
  -26.2288   -2.1352  -14.5419 O   0  0  0  0  0  0  0  0  0  0  0  0
  -29.2093   -0.5338  -13.4175 C   0  0  0  0  0  0  0  0  0  0  0  0
  -29.6212    0.8705  -13.0517 C   0  0  0  0  0  0  0  0  0  0  0  0
  -30.0284    1.5682  -14.1992 O   0  0  0  0  0  0  0  0  0  0  0  0
  -28.5029   -2.8042  -16.0705 H   0  0  0  0  0  0  0  0  0  0  0  0
  -26.3827    2.4748  -17.6021 H   0  0  0  0  0  0  0  0  0  0  0  0
  -28.3979    1.8534  -15.2943 H   0  0  0  0  0  0  0  0  0  0  0  0
  -31.2896   -0.9999  -13.8407 H   0  0  0  0  0  0  0  0  0  0  0  0
  -30.0969   -1.7858  -14.9302 H   0  0  0  0  0  0  0  0  0  0  0  0
  -30.3129   -2.3761  -13.2261 H   0  0  0  0  0  0  0  0  0  0  0  0
  -27.1808   -0.1802  -12.9609 H   0  0  0  0  0  0  0  0  0  0  0  0
  -28.1325   -2.9186  -14.1832 H   0  0  0  0  0  0  0  0  0  0  0  0
  -27.0631   -2.7656  -12.7828 H   0  0  0  0  0  0  0  0  0  0  0  0
  -30.4415    0.8426  -12.2986 H   0  0  0  0  0  0  0  0  0  0  0  0
  -28.7813    1.4256  -12.5812 H   0  0  0  0  0  0  0  0  0  0  0  0
  -29.9981    2.5346  -13.9748 H   0  0  0  0  0  0  0  0  0  0  0  0
  3  1  2  0
  1  4  1  6
  5  2  1  0
  5  1  1  0
  6  2  2  0
  7  2  1  0
  8  2  1  0
 11 10  1  0
 12 11  1  0
 12  1  1  0
 13 10  2  3
 13  9  1  0
 14 13  1  0
 15 14  1  0
  4 16  1  0
  7 17  1  0
  8 18  1  0
  9 19  1  0
  9 20  1  0
  9 21  1  0
 10 22  1  0
 11 23  1  0
 11 24  1  0
 14 25  1  0
 14 26  1  0
 15 27  1  0
M  END
