
     RDKit          3D

 27 26  0  0  0  0  0  0  0  0999 V2000
  -38.2760   -1.9310   15.1279 P   0  0  2  0  0  0  0  0  0  0  0  0
  -38.7174    0.5071   16.5235 P   0  0  0  0  0  0  0  0  0  0  0  0
  -39.0996   -2.6629   16.1646 O   0  0  0  0  0  0  0  0  0  0  0  0
  -36.8946   -2.8155   14.7951 O   0  0  0  0  0  0  0  0  0  0  0  0
  -37.6493   -0.4462   15.6361 O   0  0  0  0  0  0  0  0  0  0  0  0
  -40.0255    0.7903   15.8376 O   0  0  0  0  0  0  0  0  0  0  0  0
  -38.9762   -0.2299   18.0074 O   0  0  0  0  0  0  0  0  0  0  0  0
  -37.8849    1.9409   16.7848 O   0  0  0  0  0  0  0  0  0  0  0  0
  -35.5674   -1.3176   13.2464 C   0  0  0  0  0  0  0  0  0  0  0  0
  -37.7190   -0.6759   12.1586 C   0  0  0  0  0  0  0  0  0  0  0  0
  -38.4315   -1.9505   12.5482 C   0  0  0  0  0  0  0  0  0  0  0  0
  -39.2054   -1.7574   13.7163 O   0  0  0  0  0  0  0  0  0  0  0  0
  -36.4468   -0.3631   12.4889 C   0  0  0  0  0  0  0  0  0  0  0  0
  -35.9005    0.9939   12.1149 C   0  0  0  0  0  0  0  0  0  0  0  0
  -35.7764    1.7779   13.2708 O   0  0  0  0  0  0  0  0  0  0  0  0
  -37.0874   -3.7263   15.1333 H   0  0  0  0  0  0  0  0  0  0  0  0
  -38.0709   -0.3554   18.3887 H   0  0  0  0  0  0  0  0  0  0  0  0
  -37.7513    1.9809   17.7654 H   0  0  0  0  0  0  0  0  0  0  0  0
  -35.7857   -2.3621   12.9390 H   0  0  0  0  0  0  0  0  0  0  0  0
  -34.4948   -1.1140   13.0432 H   0  0  0  0  0  0  0  0  0  0  0  0
  -35.7348   -1.2029   14.3382 H   0  0  0  0  0  0  0  0  0  0  0  0
  -38.3068    0.0392   11.5888 H   0  0  0  0  0  0  0  0  0  0  0  0
  -39.1266   -2.2026   11.7210 H   0  0  0  0  0  0  0  0  0  0  0  0
  -37.7570   -2.8264   12.6498 H   0  0  0  0  0  0  0  0  0  0  0  0
  -34.9037    0.8672   11.6368 H   0  0  0  0  0  0  0  0  0  0  0  0
  -36.5610    1.5098   11.3815 H   0  0  0  0  0  0  0  0  0  0  0  0
  -34.8512    2.1368   13.2622 H   0  0  0  0  0  0  0  0  0  0  0  0
  3  1  2  0
  1  4  1  6
  5  2  1  0
  5  1  1  0
  6  2  2  0
  7  2  1  0
  8  2  1  0
 11 10  1  0
 12 11  1  0
 12  1  1  0
 13 10  2  3
 13  9  1  0
 14 13  1  0
 15 14  1  0
  4 16  1  0
  7 17  1  0
  8 18  1  0
  9 19  1  0
  9 20  1  0
  9 21  1  0
 10 22  1  0
 11 23  1  0
 11 24  1  0
 14 25  1  0
 14 26  1  0
 15 27  1  0
M  END
