
     RDKit          3D

 73 76  0  0  0  0  0  0  0  0999 V2000
   23.5251   12.0840   49.1045 C   0  0  0  0  0  0  0  0  0  0  0  0
   20.5538   10.5893   50.8100 O   0  0  0  0  0  0  0  0  0  0  0  0
   22.7147   11.0260   49.8385 C   0  0  0  0  0  0  0  0  0  0  0  0
   21.2880   11.5293   50.0708 C   0  0  1  0  0  0  0  0  0  0  0  0
   20.5736   11.8473   48.7506 C   0  0  0  0  0  0  0  0  0  0  0  0
   21.3935   12.7771   47.8935 C   0  0  0  0  0  0  0  0  0  0  0  0
   20.7658   13.5773   47.0102 C   0  0  0  0  0  0  0  0  0  0  0  0
   21.5171   14.4647   46.1067 C   0  0  0  0  0  0  0  0  0  0  0  0
   22.8578   14.5478   46.1846 C   0  0  0  0  0  0  0  0  0  0  0  0
   23.5852   13.8534   47.3221 C   0  0  1  0  0  0  0  0  0  0  0  0
   22.8932   12.5214   47.7489 C   0  0  1  0  0  0  0  0  0  0  0  0
   25.1261   13.7128   47.1286 C   0  0  0  0  0  0  0  0  0  0  0  0
   25.7830   14.9260   46.4598 C   0  0  0  0  0  0  0  0  0  0  0  0
   25.0492   15.2758   45.1486 C   0  0  1  0  0  0  0  0  0  0  0  0
   23.6086   15.6617   45.5224 C   0  0  1  0  0  0  0  0  0  0  0  0
   23.0383   16.2878   44.2622 C   0  0  0  0  0  0  0  0  0  0  0  0
   24.2441   17.0140   43.6516 C   0  0  0  0  0  0  0  0  0  0  0  0
   25.4930   16.5972   44.4770 C   0  0  2  0  0  0  0  0  0  0  0  0
   25.0971   14.0784   44.1507 C   0  0  0  0  0  0  0  0  0  0  0  0
   23.0682   11.3986   46.6917 C   0  0  0  0  0  0  0  0  0  0  0  0
   26.7921   16.6444   43.6139 C   0  0  2  0  0  0  0  0  0  0  0  0
   27.8581   15.6334   44.0486 C   0  0  0  0  0  0  0  0  0  0  0  0
   27.3761   18.0405   43.7299 C   0  0  0  0  0  0  0  0  0  0  0  0
   28.4851   18.4436   43.0768 C   0  0  0  0  0  0  0  0  0  0  0  0
   28.8779   19.9118   43.0526 C   0  0  1  0  0  0  0  0  0  0  0  0
   27.7844   20.9278   42.6155 C   0  0  0  0  0  0  0  0  0  0  0  0
   26.5179   20.4164   41.9450 C   0  0  0  0  0  0  0  0  0  0  0  0
   28.2656   22.2997   42.1887 C   0  0  0  0  0  0  0  0  0  0  0  0
   29.5698   20.3153   44.3534 C   0  0  0  0  0  0  0  0  0  0  0  0
   24.5469   11.6768   48.9440 H   0  0  0  0  0  0  0  0  0  0  0  0
   23.6280   12.9580   49.7865 H   0  0  0  0  0  0  0  0  0  0  0  0
   20.3058    9.8477   50.1974 H   0  0  0  0  0  0  0  0  0  0  0  0
   22.7034   10.0796   49.2557 H   0  0  0  0  0  0  0  0  0  0  0  0
   23.1949   10.8154   50.8189 H   0  0  0  0  0  0  0  0  0  0  0  0
   21.3373   12.4634   50.6739 H   0  0  0  0  0  0  0  0  0  0  0  0
   20.3820   10.9109   48.1835 H   0  0  0  0  0  0  0  0  0  0  0  0
   19.5887   12.3068   48.9890 H   0  0  0  0  0  0  0  0  0  0  0  0
   19.6839   13.6284   46.9909 H   0  0  0  0  0  0  0  0  0  0  0  0
   20.9559   15.0831   45.4191 H   0  0  0  0  0  0  0  0  0  0  0  0
   23.4688   14.5653   48.1724 H   0  0  0  0  0  0  0  0  0  0  0  0
   25.6112   13.5829   48.1196 H   0  0  0  0  0  0  0  0  0  0  0  0
   25.3806   12.8117   46.5389 H   0  0  0  0  0  0  0  0  0  0  0  0
   26.8453   14.6781   46.2776 H   0  0  0  0  0  0  0  0  0  0  0  0
   25.7613   15.7883   47.1626 H   0  0  0  0  0  0  0  0  0  0  0  0
   23.6348   16.4779   46.2863 H   0  0  0  0  0  0  0  0  0  0  0  0
   22.6582   15.5076   43.5663 H   0  0  0  0  0  0  0  0  0  0  0  0
   22.2207   17.0027   44.5011 H   0  0  0  0  0  0  0  0  0  0  0  0
   24.1010   18.1156   43.7066 H   0  0  0  0  0  0  0  0  0  0  0  0
   24.3457   16.7285   42.5814 H   0  0  0  0  0  0  0  0  0  0  0  0
   25.6190   17.3479   45.2945 H   0  0  0  0  0  0  0  0  0  0  0  0
   24.3446   13.3016   44.3925 H   0  0  0  0  0  0  0  0  0  0  0  0
   24.9008   14.3987   43.1070 H   0  0  0  0  0  0  0  0  0  0  0  0
   26.0973   13.5994   44.1655 H   0  0  0  0  0  0  0  0  0  0  0  0
   22.8001   11.7648   45.6783 H   0  0  0  0  0  0  0  0  0  0  0  0
   24.1078   11.0143   46.6643 H   0  0  0  0  0  0  0  0  0  0  0  0
   22.4156   10.5295   46.9171 H   0  0  0  0  0  0  0  0  0  0  0  0
   26.5343   16.4402   42.5509 H   0  0  0  0  0  0  0  0  0  0  0  0
   27.3813   14.7623   44.5482 H   0  0  0  0  0  0  0  0  0  0  0  0
   28.5425   16.0847   44.7931 H   0  0  0  0  0  0  0  0  0  0  0  0
   28.4329   15.2638   43.1725 H   0  0  0  0  0  0  0  0  0  0  0  0
   26.8413   18.7588   44.3468 H   0  0  0  0  0  0  0  0  0  0  0  0
   29.0476   17.7384   42.4720 H   0  0  0  0  0  0  0  0  0  0  0  0
   29.6870   20.0053   42.2888 H   0  0  0  0  0  0  0  0  0  0  0  0
   27.3370   21.1975   43.6033 H   0  0  0  0  0  0  0  0  0  0  0  0
   25.8781   21.2435   41.5713 H   0  0  0  0  0  0  0  0  0  0  0  0
   26.7690   19.7733   41.0740 H   0  0  0  0  0  0  0  0  0  0  0  0
   25.9385   19.8062   42.6690 H   0  0  0  0  0  0  0  0  0  0  0  0
   27.7436   22.6370   41.2669 H   0  0  0  0  0  0  0  0  0  0  0  0
   29.3562   22.2622   41.9842 H   0  0  0  0  0  0  0  0  0  0  0  0
   28.0789   23.0451   42.9919 H   0  0  0  0  0  0  0  0  0  0  0  0
   30.6400   20.0161   44.3211 H   0  0  0  0  0  0  0  0  0  0  0  0
   29.5377   21.4170   44.4922 H   0  0  0  0  0  0  0  0  0  0  0  0
   29.0979   19.8114   45.2236 H   0  0  0  0  0  0  0  0  0  0  0  0
  3  1  1  0
  4  2  1  0
  4  3  1  0
  5  4  1  0
  6  5  1  0
  7  6  2  0
  8  7  1  0
  9  8  2  0
 10  9  1  0
 11  6  1  0
 11 10  1  0
 11  1  1  0
 10 12  1  0
 13 12  1  0
 14 13  1  0
 15 14  1  0
 15  9  1  0
 15 16  1  0
 17 16  1  0
 18 14  1  0
 18 17  1  0
 14 19  1  6
 11 20  1  6
 21 18  1  0
 21 22  1  0
 23 21  1  0
 24 23  2  3
 25 24  1  0
 26 25  1  0
 26 27  1  0
 28 26  1  0
 25 29  1  0
  1 30  1  0
  1 31  1  0
  2 32  1  0
  3 33  1  0
  3 34  1  0
  4 35  1  1
  5 36  1  0
  5 37  1  0
  7 38  1  0
  8 39  1  0
 10 40  1  1
 12 41  1  0
 12 42  1  0
 13 43  1  0
 13 44  1  0
 15 45  1  1
 16 46  1  0
 16 47  1  0
 17 48  1  0
 17 49  1  0
 18 50  1  1
 19 51  1  0
 19 52  1  0
 19 53  1  0
 20 54  1  0
 20 55  1  0
 20 56  1  0
 21 57  1  6
 22 58  1  0
 22 59  1  0
 22 60  1  0
 23 61  1  0
 24 62  1  0
 25 63  1  6
 26 64  1  0
 27 65  1  0
 27 66  1  0
 27 67  1  0
 28 68  1  0
 28 69  1  0
 28 70  1  0
 29 71  1  0
 29 72  1  0
 29 73  1  0
M  END
