
     RDKit          3D

 32 33  0  0  0  0  0  0  0  0999 V2000
    3.1306    7.3570   56.9479 N   0  0  0  0  0  0  0  0  0  0  0  0
    2.5928    7.5058   58.1828 C   0  0  0  0  0  0  0  0  0  0  0  0
    2.8009    8.7162   58.8983 N   0  0  0  0  0  0  0  0  0  0  0  0
    1.8605    6.4977   58.7352 N   0  0  0  0  0  0  0  0  0  0  0  0
    1.6526    5.3281   58.0685 C   0  0  0  0  0  0  0  0  0  0  0  0
    2.2055    5.1602   56.7917 C   0  0  0  0  0  0  0  0  0  0  0  0
    0.9789    4.4094   58.6108 O   0  0  0  0  0  0  0  0  0  0  0  0
    2.0568    3.9446   56.0460 N   0  0  0  0  0  0  0  0  0  0  0  0
    3.0297    3.6420   54.9887 C   0  0  2  0  0  0  0  0  0  0  0  0
    3.2955    4.9018   54.1277 C   0  0  0  0  0  0  0  0  0  0  0  0
    2.9513    6.2128   56.2461 C   0  0  0  0  0  0  0  0  0  0  0  0
    3.5502    6.0729   54.9616 N   0  0  0  0  0  0  0  0  0  0  0  0
    2.5665    2.4133   54.1592 C   0  0  1  0  0  0  0  0  0  0  0  0
    3.5909    1.4545   54.0297 O   0  0  0  0  0  0  0  0  0  0  0  0
    1.2717    1.7778   54.7092 C   0  0  1  0  0  0  0  0  0  0  0  0
    1.5257    1.2751   55.9953 O   0  0  0  0  0  0  0  0  0  0  0  0
    0.1449    2.8100   54.7758 C   0  0  0  0  0  0  0  0  0  0  0  0
    3.5802    8.8021   59.5879 H   0  0  0  0  0  0  0  0  0  0  0  0
    2.1738    9.5361   58.7411 H   0  0  0  0  0  0  0  0  0  0  0  0
    1.4515    6.6216   59.6894 H   0  0  0  0  0  0  0  0  0  0  0  0
    1.3542    3.2294   56.3423 H   0  0  0  0  0  0  0  0  0  0  0  0
    3.9874    3.3807   55.4916 H   0  0  0  0  0  0  0  0  0  0  0  0
    2.4190    5.1232   53.4849 H   0  0  0  0  0  0  0  0  0  0  0  0
    4.1769    4.7362   53.4729 H   0  0  0  0  0  0  0  0  0  0  0  0
    4.0935    6.8700   54.5600 H   0  0  0  0  0  0  0  0  0  0  0  0
    2.3416    2.7909   53.1366 H   0  0  0  0  0  0  0  0  0  0  0  0
    3.6793    0.9756   54.8934 H   0  0  0  0  0  0  0  0  0  0  0  0
    0.9450    0.9524   54.0350 H   0  0  0  0  0  0  0  0  0  0  0  0
    1.6766    2.0588   56.5860 H   0  0  0  0  0  0  0  0  0  0  0  0
   -0.6858    2.4201   55.4015 H   0  0  0  0  0  0  0  0  0  0  0  0
   -0.2550    3.0171   53.7606 H   0  0  0  0  0  0  0  0  0  0  0  0
    0.5106    3.7586   55.2241 H   0  0  0  0  0  0  0  0  0  0  0  0
  2  1  2  0
  3  2  1  0
  4  2  1  0
  5  4  1  0
  6  5  1  0
  7  5  2  0
  8  6  1  0
  9  8  1  0
  9 10  1  0
 11  6  2  0
 11  1  1  0
 12 10  1  0
 12 11  1  0
 13  9  1  0
 13 14  1  0
 15 13  1  0
 16 15  1  0
 15 17  1  0
  3 18  1  0
  3 19  1  0
  4 20  1  0
  8 21  1  0
  9 22  1  1
 10 23  1  0
 10 24  1  0
 12 25  1  0
 13 26  1  6
 14 27  1  0
 15 28  1  6
 16 29  1  0
 17 30  1  0
 17 31  1  0
 17 32  1  0
M  END
