
     RDKit          3D

 68 70  0  0  0  0  0  0  0  0999 V2000
    3.8042   18.6047   13.1507 C   0  0  0  0  0  0  0  0  0  0  0  0
    4.0923   16.4904   10.3668 P   0  0  2  0  0  0  0  0  0  0  0  0
    5.1600   17.4272   12.8898 P   0  0  2  0  0  0  0  0  0  0  0  0
    5.1722   15.7778   17.5796 C   0  0  0  0  0  0  0  0  0  0  0  0
    4.2138   16.8762   17.2674 C   0  0  0  0  0  0  0  0  0  0  0  0
    3.8172   17.6394   18.1871 O   0  0  0  0  0  0  0  0  0  0  0  0
    0.3219   21.0137   13.8194 C   0  0  0  0  0  0  0  0  0  0  0  0
    0.9320   22.0926   13.1596 O   0  0  0  0  0  0  0  0  0  0  0  0
    1.2459   19.7877   13.8268 C   0  0  1  0  0  0  0  0  0  0  0  0
    2.4751   20.1600   14.4647 O   0  0  0  0  0  0  0  0  0  0  0  0
    0.5362   18.6043   14.5436 C   0  0  1  0  0  0  0  0  0  0  0  0
   -0.5103   18.1316   13.7303 O   0  0  0  0  0  0  0  0  0  0  0  0
    1.5112   17.4548   14.8732 C   0  0  2  0  0  0  0  0  0  0  0  0
    0.9011   16.5340   15.7408 O   0  0  0  0  0  0  0  0  0  0  0  0
    2.7558   18.0404   15.5439 C   0  0  1  0  0  0  0  0  0  0  0  0
    3.6749   16.9770   15.9497 N   0  0  0  0  0  0  0  0  0  0  0  0
    0.0893   16.5637    6.4468 O   0  0  0  0  0  0  0  0  0  0  0  0
    3.3953   19.0745   14.5862 C   0  0  1  0  0  0  0  0  0  0  0  0
    0.0217   18.5099    7.9007 C   0  0  1  0  0  0  0  0  0  0  0  0
    0.4397   19.6612    7.0662 N   0  0  0  0  0  0  0  0  0  0  0  0
    3.4729   15.1153   11.1107 O   0  0  0  0  0  0  0  0  0  0  0  0
    4.9487   15.9506   13.6414 O   0  0  0  0  0  0  0  0  0  0  0  0
   -0.5056   20.4935    6.5054 C   0  0  0  0  0  0  0  0  0  0  0  0
    0.7033   17.1910    7.5437 C   0  0  1  0  0  0  0  0  0  0  0  0
   -1.7409   20.2765    6.6639 O   0  0  0  0  0  0  0  0  0  0  0  0
    4.7454   16.0727    9.0706 O   0  0  0  0  0  0  0  0  0  0  0  0
    6.4478   18.0535   13.3664 O   0  0  0  0  0  0  0  0  0  0  0  0
    0.5201   16.4106    8.8351 C   0  0  2  0  0  0  0  0  0  0  0  0
   -0.1148   21.5724    5.7726 N   0  0  0  0  0  0  0  0  0  0  0  0
    5.3643   17.2371   11.2181 O   0  0  0  0  0  0  0  0  0  0  0  0
   -0.6798   15.6623    8.8411 O   0  0  0  0  0  0  0  0  0  0  0  0
    1.2005   21.8624    5.5837 C   0  0  0  0  0  0  0  0  0  0  0  0
    0.4810   17.5191    9.9060 C   0  0  2  0  0  0  0  0  0  0  0  0
    1.5294   22.8671    4.8984 O   0  0  0  0  0  0  0  0  0  0  0  0
    0.2781   18.7686    9.2628 O   0  0  0  0  0  0  0  0  0  0  0  0
    2.1772   21.0512    6.1585 C   0  0  0  0  0  0  0  0  0  0  0  0
    1.7587   17.5839   10.7610 C   0  0  0  0  0  0  0  0  0  0  0  0
    2.8846   17.5982    9.9126 O   0  0  0  0  0  0  0  0  0  0  0  0
    1.7711   19.9599    6.9176 C   0  0  0  0  0  0  0  0  0  0  0  0
    4.0784   19.5153   12.5763 H   0  0  0  0  0  0  0  0  0  0  0  0
    2.9649   18.1596   12.6095 H   0  0  0  0  0  0  0  0  0  0  0  0
    5.8475   15.6072   16.7147 H   0  0  0  0  0  0  0  0  0  0  0  0
    5.7880   16.0439   18.4647 H   0  0  0  0  0  0  0  0  0  0  0  0
    4.6092   14.8456   17.7933 H   0  0  0  0  0  0  0  0  0  0  0  0
    0.1051   21.3231   14.8644 H   0  0  0  0  0  0  0  0  0  0  0  0
   -0.6493   20.7699   13.3305 H   0  0  0  0  0  0  0  0  0  0  0  0
    0.6870   22.9106   13.6662 H   0  0  0  0  0  0  0  0  0  0  0  0
    1.4021   19.5448   12.7564 H   0  0  0  0  0  0  0  0  0  0  0  0
    0.1219   18.9852   15.5090 H   0  0  0  0  0  0  0  0  0  0  0  0
   -0.0941   17.6229   12.9863 H   0  0  0  0  0  0  0  0  0  0  0  0
    1.7997   16.9191   13.9423 H   0  0  0  0  0  0  0  0  0  0  0  0
    0.3274   15.9438   15.1853 H   0  0  0  0  0  0  0  0  0  0  0  0
    2.4138   18.5915   16.4494 H   0  0  0  0  0  0  0  0  0  0  0  0
    3.5909   16.0620   15.4592 H   0  0  0  0  0  0  0  0  0  0  0  0
    0.3574   17.0825    5.6441 H   0  0  0  0  0  0  0  0  0  0  0  0
    4.3108   19.4664   15.0792 H   0  0  0  0  0  0  0  0  0  0  0  0
   -1.0745   18.3449    7.8004 H   0  0  0  0  0  0  0  0  0  0  0  0
    4.0923   14.9236   11.8589 H   0  0  0  0  0  0  0  0  0  0  0  0
    5.8228   15.4926   13.5568 H   0  0  0  0  0  0  0  0  0  0  0  0
    1.7932   17.3044    7.3567 H   0  0  0  0  0  0  0  0  0  0  0  0
    1.3684   15.7097    8.9848 H   0  0  0  0  0  0  0  0  0  0  0  0
   -0.8412   22.1931    5.3470 H   0  0  0  0  0  0  0  0  0  0  0  0
   -1.4463   16.2844    8.7403 H   0  0  0  0  0  0  0  0  0  0  0  0
   -0.3703   17.3387   10.6003 H   0  0  0  0  0  0  0  0  0  0  0  0
    3.2299   21.2765    6.0393 H   0  0  0  0  0  0  0  0  0  0  0  0
    1.7446   16.7719   11.5202 H   0  0  0  0  0  0  0  0  0  0  0  0
    1.7254   18.5465   11.3078 H   0  0  0  0  0  0  0  0  0  0  0  0
    2.5342   19.3731    7.4109 H   0  0  0  0  0  0  0  0  0  0  0  0
  3  1  1  0
  5  4  1  0
  6  5  2  0
  8  7  1  0
  9  7  1  0
 10  9  1  0
 11  9  1  0
 11 12  1  0
 13 11  1  0
 13 14  1  0
 15 13  1  0
 15 16  1  0
 16  5  1  0
 18 15  1  0
 18 10  1  0
 18  1  1  0
 19 20  1  0
  2 21  1  1
  3 22  1  1
 23 20  1  0
 24 19  1  0
 24 17  1  0
 25 23  2  0
 26  2  2  0
 27  3  2  0
 28 24  1  0
 29 23  1  0
 30  2  1  0
 30  3  1  0
 28 31  1  0
 32 29  1  0
 33 28  1  0
 34 32  2  0
 35 33  1  0
 35 19  1  0
 36 32  1  0
 33 37  1  0
 38 37  1  0
 38  2  1  0
 39 36  2  0
 39 20  1  0
  1 40  1  0
  1 41  1  0
  4 42  1  0
  4 43  1  0
  4 44  1  0
  7 45  1  0
  7 46  1  0
  8 47  1  0
  9 48  1  6
 11 49  1  1
 12 50  1  0
 13 51  1  6
 14 52  1  0
 15 53  1  1
 16 54  1  0
 17 55  1  0
 18 56  1  1
 19 57  1  1
 21 58  1  0
 22 59  1  0
 24 60  1  6
 28 61  1  1
 29 62  1  0
 31 63  1  0
 33 64  1  1
 36 65  1  0
 37 66  1  0
 37 67  1  0
 39 68  1  0
M  END
