
     RDKit          3D

 20 19  0  0  0  0  0  0  0  0999 V2000
   32.1579   48.8772  114.9134 C   0  0  0  0  0  0  0  0  0  0  0  0
   30.8452   48.3773  114.4919 N   0  0  0  0  0  0  0  0  0  0  0  0
   33.3697   47.4671  113.2675 C   0  0  0  0  0  0  0  0  0  0  0  0
   32.1025   49.2723  116.3301 N   0  0  0  0  0  0  0  0  0  0  0  0
   35.5672   47.8716  114.3163 C   0  0  0  0  0  0  0  0  0  0  0  0
   36.2456   48.8181  113.8303 O   0  0  0  0  0  0  0  0  0  0  0  0
   35.8127   46.5719  113.9222 O   0  0  0  0  0  0  0  0  0  0  0  0
   34.5039   48.1453  115.3220 C   0  0  0  0  0  0  0  0  0  0  0  0
   33.2072   47.8620  114.6807 N   0  0  0  0  0  0  0  0  0  0  0  0
   32.3922   49.7812  114.3018 H   0  0  0  0  0  0  0  0  0  0  0  0
   30.9644   47.4754  113.9753 H   0  0  0  0  0  0  0  0  0  0  0  0
   30.3844   49.0721  113.8607 H   0  0  0  0  0  0  0  0  0  0  0  0
   32.6984   48.0654  112.6177 H   0  0  0  0  0  0  0  0  0  0  0  0
   34.4247   47.5994  112.9424 H   0  0  0  0  0  0  0  0  0  0  0  0
   33.0803   46.4042  113.1158 H   0  0  0  0  0  0  0  0  0  0  0  0
   32.6948   50.1230  116.4695 H   0  0  0  0  0  0  0  0  0  0  0  0
   31.1314   49.5822  116.5656 H   0  0  0  0  0  0  0  0  0  0  0  0
   36.5328   46.3622  113.2412 H   0  0  0  0  0  0  0  0  0  0  0  0
   34.5737   49.2028  115.6628 H   0  0  0  0  0  0  0  0  0  0  0  0
   34.6991   47.5125  116.2096 H   0  0  0  0  0  0  0  0  0  0  0  0
  1  2  1  0
  4  1  1  0
  6  5  2  0
  7  5  1  0
  8  5  1  0
  9  1  1  0
  9  8  1  0
  9  3  1  0
  1 10  1  0
  2 11  1  0
  2 12  1  0
  3 13  1  0
  3 14  1  0
  3 15  1  0
  4 16  1  0
  4 17  1  0
  7 18  1  0
  8 19  1  0
  8 20  1  0
M  END
