
     RDKit          3D

 40 41  0  0  0  0  0  0  0  0999 V2000
   71.7070   50.4181   21.1981 C   0  0  0  0  0  0  0  0  0  0  0  0
   70.3701   50.4474   21.6150 C   0  0  0  0  0  0  0  0  0  0  0  0
   69.9303   49.5401   22.5924 C   0  0  0  0  0  0  0  0  0  0  0  0
   70.8129   48.5885   23.1213 C   0  0  0  0  0  0  0  0  0  0  0  0
   72.1422   48.5493   22.6859 C   0  0  0  0  0  0  0  0  0  0  0  0
   72.5895   49.4663   21.7272 C   0  0  0  0  0  0  0  0  0  0  0  0
   66.7844   49.8172   19.6720 C   0  0  2  0  0  0  0  0  0  0  0  0
   66.4799   49.7424   21.1498 C   0  0  0  0  0  0  0  0  0  0  0  0
   68.2619   49.5597   19.4020 C   0  0  0  0  0  0  0  0  0  0  0  0
   68.8878   50.9519   19.3124 C   0  0  1  0  0  0  0  0  0  0  0  0
   67.7849   51.7671   18.6504 C   0  0  0  0  0  0  0  0  0  0  0  0
   63.5547   53.4360   19.4196 C   0  0  0  0  0  0  0  0  0  0  0  0
   64.9254   53.1191   18.8104 C   0  0  1  0  0  0  0  0  0  0  0  0
   65.2277   51.6367   18.8622 C   0  0  0  0  0  0  0  0  0  0  0  0
   65.0651   53.6864   17.3853 C   0  0  0  0  0  0  0  0  0  0  0  0
   66.5497   51.1508   19.1256 N   0  0  0  0  0  0  0  0  0  0  0  0
   65.4210   49.1869   21.5444 O   0  0  0  0  0  0  0  0  0  0  0  0
   67.3630   50.2583   22.0816 O   0  0  0  0  0  0  0  0  0  0  0  0
   64.3046   50.8044   18.6477 O   0  0  0  0  0  0  0  0  0  0  0  0
   69.2430   51.6948   20.9681 S   0  0  0  0  0  0  0  0  0  0  0  0
   63.4690   54.0773   16.5970 S   0  0  0  0  0  0  0  0  0  0  0  0
   72.0622   51.1265   20.4607 H   0  0  0  0  0  0  0  0  0  0  0  0
   68.9080   49.5735   22.9446 H   0  0  0  0  0  0  0  0  0  0  0  0
   70.4674   47.8870   23.8696 H   0  0  0  0  0  0  0  0  0  0  0  0
   72.8250   47.8155   23.0944 H   0  0  0  0  0  0  0  0  0  0  0  0
   73.6195   49.4418   21.3956 H   0  0  0  0  0  0  0  0  0  0  0  0
   66.1704   49.0640   19.1298 H   0  0  0  0  0  0  0  0  0  0  0  0
   68.7425   48.9085   20.1603 H   0  0  0  0  0  0  0  0  0  0  0  0
   68.3693   49.0562   18.4152 H   0  0  0  0  0  0  0  0  0  0  0  0
   69.8124   50.9438   18.6957 H   0  0  0  0  0  0  0  0  0  0  0  0
   67.8465   51.6794   17.5441 H   0  0  0  0  0  0  0  0  0  0  0  0
   67.8509   52.8346   18.9473 H   0  0  0  0  0  0  0  0  0  0  0  0
   62.7651   52.7854   18.9872 H   0  0  0  0  0  0  0  0  0  0  0  0
   63.2854   54.4964   19.2263 H   0  0  0  0  0  0  0  0  0  0  0  0
   63.5821   53.2808   20.5197 H   0  0  0  0  0  0  0  0  0  0  0  0
   65.6557   53.6584   19.4464 H   0  0  0  0  0  0  0  0  0  0  0  0
   65.5918   52.9456   16.7474 H   0  0  0  0  0  0  0  0  0  0  0  0
   65.6879   54.6064   17.4068 H   0  0  0  0  0  0  0  0  0  0  0  0
   67.7104   51.2063   22.0007 H   0  0  0  0  0  0  0  0  0  0  0  0
   64.0877   54.5146   15.4106 H   0  0  0  0  0  0  0  0  0  0  0  0
  2  1  2  0
  3  2  1  0
  4  3  2  0
  5  4  1  0
  6  5  2  0
  6  1  1  0
  7  8  1  0
  9  7  1  0
 10  9  1  0
 11 10  1  0
 13 12  1  0
 14 13  1  0
 15 13  1  0
 16 14  1  0
 16 11  1  0
 16  7  1  0
 17  8  2  0
 18  8  1  0
 19 14  2  0
 10 20  1  0
 20  2  1  0
 21 15  1  0
  1 22  1  0
  3 23  1  0
  4 24  1  0
  5 25  1  0
  6 26  1  0
  7 27  1  6
  9 28  1  0
  9 29  1  0
 10 30  1  6
 11 31  1  0
 11 32  1  0
 12 33  1  0
 12 34  1  0
 12 35  1  0
 13 36  1  1
 15 37  1  0
 15 38  1  0
 18 39  1  0
 21 40  1  0
M  END
