
     RDKit          3D

 43 46  0  0  0  0  0  0  0  0999 V2000
    1.4177   -0.5996   -2.1004 C   0  0  0  0  0  0  0  0  0  0  0  0
    0.6054    0.5647   -2.6927 C   0  0  0  0  0  0  0  0  0  0  0  0
   -0.4780    1.0378   -1.6759 C   0  0  0  0  0  0  0  0  0  0  0  0
   -0.2358    0.0609   -3.8351 C   0  0  0  0  0  0  0  0  0  0  0  0
    0.1588   -0.3307   -5.1172 C   0  0  0  0  0  0  0  0  0  0  0  0
   -1.7187    0.4061   -2.1159 N   0  0  0  0  0  0  0  0  0  0  0  0
   -0.8049   -0.8625   -5.9975 C   0  0  0  0  0  0  0  0  0  0  0  0
   -0.3980   -1.2366   -7.3640 C   0  0  0  0  0  0  0  0  0  0  0  0
    0.2651   -2.2905   -7.5534 O   0  0  0  0  0  0  0  0  0  0  0  0
   -0.7944   -0.4310   -8.4773 N   0  0  0  0  0  0  0  0  0  0  0  0
   -0.0434    0.7460   -8.9208 C   0  0  0  0  0  0  0  0  0  0  0  0
   -0.4257    0.8574  -10.3496 C   0  0  0  0  0  0  0  0  0  0  0  0
    0.0984    1.7164  -11.3164 C   0  0  0  0  0  0  0  0  0  0  0  0
   -0.3659    1.6054  -12.6364 C   0  0  0  0  0  0  0  0  0  0  0  0
   -1.3313    0.6386  -12.9694 C   0  0  0  0  0  0  0  0  0  0  0  0
   -1.8423   -0.2179  -11.9834 C   0  0  0  0  0  0  0  0  0  0  0  0
   -1.3760   -0.0833  -10.6760 C   0  0  0  0  0  0  0  0  0  0  0  0
   -1.7279   -0.9082   -9.5002 C   0  0  0  0  0  0  0  0  0  0  0  0
   -2.1535   -0.9858   -5.5731 C   0  0  0  0  0  0  0  0  0  0  0  0
    1.5383    1.7092   -3.1140 C   0  0  0  0  0  0  0  0  0  0  0  0
   -3.1405   -1.4904   -6.4188 O   0  0  0  0  0  0  0  0  0  0  0  0
   -2.5190   -0.5849   -4.2757 C   0  0  0  0  0  0  0  0  0  0  0  0
   -1.5352   -0.0691   -3.4326 C   0  0  0  0  0  0  0  0  0  0  0  0
    1.8733   -1.2077   -2.9116 H   0  0  0  0  0  0  0  0  0  0  0  0
    0.7682   -1.2634   -1.4888 H   0  0  0  0  0  0  0  0  0  0  0  0
    2.2330   -0.2124   -1.4523 H   0  0  0  0  0  0  0  0  0  0  0  0
   -0.6101    2.1417   -1.7065 H   0  0  0  0  0  0  0  0  0  0  0  0
   -0.2462    0.7366   -0.6312 H   0  0  0  0  0  0  0  0  0  0  0  0
    1.1945   -0.2404   -5.4200 H   0  0  0  0  0  0  0  0  0  0  0  0
   -2.6425    0.5071   -1.6398 H   0  0  0  0  0  0  0  0  0  0  0  0
   -0.3565    1.6450   -8.3492 H   0  0  0  0  0  0  0  0  0  0  0  0
    1.0512    0.5729   -8.8371 H   0  0  0  0  0  0  0  0  0  0  0  0
    0.8542    2.4463  -11.0569 H   0  0  0  0  0  0  0  0  0  0  0  0
    0.0274    2.2608  -13.4026 H   0  0  0  0  0  0  0  0  0  0  0  0
   -1.6790    0.5529  -13.9907 H   0  0  0  0  0  0  0  0  0  0  0  0
   -2.5774   -0.9717  -12.2343 H   0  0  0  0  0  0  0  0  0  0  0  0
   -1.5512   -1.9812   -9.7308 H   0  0  0  0  0  0  0  0  0  0  0  0
   -2.7775   -0.7284   -9.1852 H   0  0  0  0  0  0  0  0  0  0  0  0
    1.2250    2.1240   -4.0964 H   0  0  0  0  0  0  0  0  0  0  0  0
    2.5856    1.3498   -3.2042 H   0  0  0  0  0  0  0  0  0  0  0  0
    1.5090    2.5251   -2.3605 H   0  0  0  0  0  0  0  0  0  0  0  0
   -4.1051   -1.6064   -6.1357 H   0  0  0  0  0  0  0  0  0  0  0  0
   -3.5442   -0.6682   -3.9383 H   0  0  0  0  0  0  0  0  0  0  0  0
  2  1  1  0
  3  2  1  0
  4  2  1  0
  5  4  2  0
  6  3  1  0
  7  5  1  0
  8  7  1  0
  9  8  2  0
 10  8  1  0
 11 10  1  0
 12 11  1  0
 13 12  2  0
 14 13  1  0
 15 14  2  0
 16 15  1  0
 17 16  2  0
 17 12  1  0
 18 17  1  0
 18 10  1  0
 19  7  2  0
 20  2  1  0
 21 19  1  0
 22 19  1  0
 23 22  2  0
 23  6  1  0
 23  4  1  0
  1 24  1  0
  1 25  1  0
  1 26  1  0
  3 27  1  0
  3 28  1  0
  5 29  1  0
  6 30  1  0
 11 31  1  0
 11 32  1  0
 13 33  1  0
 14 34  1  0
 15 35  1  0
 16 36  1  0
 18 37  1  0
 18 38  1  0
 20 39  1  0
 20 40  1  0
 20 41  1  0
 21 42  1  0
 22 43  1  0
M  END
