
     RDKit          3D

 32 33  0  0  0  0  0  0  0  0999 V2000
    9.1125    2.2841   33.8337 N   0  0  0  0  0  0  0  0  0  0  0  0
    9.2299    1.9060   32.5379 C   0  0  0  0  0  0  0  0  0  0  0  0
   10.5222    1.7792   31.9548 N   0  0  0  0  0  0  0  0  0  0  0  0
    8.1125    1.6546   31.7997 N   0  0  0  0  0  0  0  0  0  0  0  0
    6.8640    1.7849   32.3360 C   0  0  0  0  0  0  0  0  0  0  0  0
    6.7275    2.1899   33.6727 C   0  0  0  0  0  0  0  0  0  0  0  0
    5.8502    1.5543   31.6219 O   0  0  0  0  0  0  0  0  0  0  0  0
    5.4474    2.4259   34.2879 N   0  0  0  0  0  0  0  0  0  0  0  0
    5.3937    3.3312   35.4480 C   0  0  2  0  0  0  0  0  0  0  0  0
    6.5121    2.9550   36.4451 C   0  0  0  0  0  0  0  0  0  0  0  0
    7.8939    2.4258   34.4114 C   0  0  0  0  0  0  0  0  0  0  0  0
    7.8015    2.8474   35.7690 N   0  0  0  0  0  0  0  0  0  0  0  0
    3.9830    3.3450   36.1039 C   0  0  1  0  0  0  0  0  0  0  0  0
    4.0731    3.6288   37.4798 O   0  0  0  0  0  0  0  0  0  0  0  0
    3.0400    4.3706   35.4290 C   0  0  1  0  0  0  0  0  0  0  0  0
    2.2026    3.7009   34.5205 O   0  0  0  0  0  0  0  0  0  0  0  0
    2.1792    5.0994   36.4606 C   0  0  0  0  0  0  0  0  0  0  0  0
   10.6321    1.4909   30.9573 H   0  0  0  0  0  0  0  0  0  0  0  0
   11.3775    1.9740   32.5212 H   0  0  0  0  0  0  0  0  0  0  0  0
    8.2112    1.3608   30.8012 H   0  0  0  0  0  0  0  0  0  0  0  0
    4.5697    2.1139   33.8142 H   0  0  0  0  0  0  0  0  0  0  0  0
    5.6122    4.3559   35.0734 H   0  0  0  0  0  0  0  0  0  0  0  0
    6.6012    3.7272   37.2370 H   0  0  0  0  0  0  0  0  0  0  0  0
    6.2795    1.9807   36.9258 H   0  0  0  0  0  0  0  0  0  0  0  0
    8.6763    3.0131   36.3160 H   0  0  0  0  0  0  0  0  0  0  0  0
    3.5348    2.3326   35.9582 H   0  0  0  0  0  0  0  0  0  0  0  0
    3.6942    2.8508   37.9656 H   0  0  0  0  0  0  0  0  0  0  0  0
    3.6484    5.1397   34.9003 H   0  0  0  0  0  0  0  0  0  0  0  0
    1.8152    4.3922   33.9222 H   0  0  0  0  0  0  0  0  0  0  0  0
    2.8189    5.5702   37.2376 H   0  0  0  0  0  0  0  0  0  0  0  0
    1.4917    4.3804   36.9547 H   0  0  0  0  0  0  0  0  0  0  0  0
    1.5655    5.8848   35.9706 H   0  0  0  0  0  0  0  0  0  0  0  0
  2  1  2  0
  3  2  1  0
  4  2  1  0
  5  4  1  0
  6  5  1  0
  7  5  2  0
  8  6  1  0
  9  8  1  0
  9 10  1  0
 11  6  2  0
 11  1  1  0
 12 11  1  0
 12 10  1  0
 13  9  1  0
 13 14  1  0
 15 13  1  0
 16 15  1  0
 15 17  1  0
  3 18  1  0
  3 19  1  0
  4 20  1  0
  8 21  1  0
  9 22  1  6
 10 23  1  0
 10 24  1  0
 12 25  1  0
 13 26  1  1
 14 27  1  0
 15 28  1  6
 16 29  1  0
 17 30  1  0
 17 31  1  0
 17 32  1  0
M  END
