
     RDKit          3D

 58 62  0  0  0  0  0  0  0  0999 V2000
   41.7860   28.1364   29.4965 C   0  0  0  0  0  0  0  0  0  0  0  0
   40.4004   26.1567   29.7306 C   0  0  0  0  0  0  0  0  0  0  0  0
   41.2252   28.6594   30.6552 C   0  0  0  0  0  0  0  0  0  0  0  0
   39.8564   26.6792   30.9046 C   0  0  0  0  0  0  0  0  0  0  0  0
   37.6702   29.7287   28.5823 C   0  0  0  0  0  0  0  0  0  0  0  0
   39.7362   28.8787   27.8350 C   0  0  0  0  0  0  0  0  0  0  0  0
   35.6526   25.8338   28.7005 C   0  0  0  0  0  0  0  0  0  0  0  0
   31.2295   25.3177   28.6857 C   0  0  0  0  0  0  0  0  0  0  0  0
   33.6020   26.6975   28.6008 C   0  0  0  0  0  0  0  0  0  0  0  0
   34.9632   27.0448   28.5505 C   0  0  0  0  0  0  0  0  0  0  0  0
   41.3965   26.8745   29.0274 C   0  0  0  0  0  0  0  0  0  0  0  0
   40.2726   27.9296   31.3620 C   0  0  0  0  0  0  0  0  0  0  0  0
   37.0358   28.5483   28.1685 C   0  0  0  0  0  0  0  0  0  0  0  0
   33.5581   25.3325   28.7446 C   0  0  0  0  0  0  0  0  0  0  0  0
   39.0919   27.7127   27.3767 C   0  0  0  0  0  0  0  0  0  0  0  0
   32.3819   27.3942   28.5142 C   0  0  0  0  0  0  0  0  0  0  0  0
   35.5872   28.3747   28.2999 C   0  0  0  0  0  0  0  0  0  0  0  0
   42.3001   24.8895   27.6915 C   0  0  0  0  0  0  0  0  0  0  0  0
   41.5765   25.4490   25.6001 C   0  0  0  0  0  0  0  0  0  0  0  0
   42.0243   26.3797   27.7403 C   0  0  1  0  0  0  0  0  0  0  0  0
   41.2209   26.6354   26.4806 C   0  0  2  0  0  0  0  0  0  0  0  0
   34.7307   22.7443   27.5223 C   0  0  0  0  0  0  0  0  0  0  0  0
   36.5565   23.1020   29.2306 C   0  0  0  0  0  0  0  0  0  0  0  0
   35.0875   23.3650   28.8719 C   0  0  0  0  0  0  0  0  0  0  0  0
   39.0087   29.8640   28.4141 N   0  0  0  0  0  0  0  0  0  0  0  0
   32.3980   24.6335   28.7816 N   0  0  0  0  0  0  0  0  0  0  0  0
   31.2280   26.6737   28.5543 N   0  0  0  0  0  0  0  0  0  0  0  0
   37.7608   27.5871   27.5572 N   0  0  0  0  0  0  0  0  0  0  0  0
   34.7863   24.7997   28.8263 N   0  0  0  0  0  0  0  0  0  0  0  0
   32.2879   28.8103   28.4430 N   0  0  0  0  0  0  0  0  0  0  0  0
   39.7799   26.6462   26.7259 N   0  0  0  0  0  0  0  0  0  0  0  0
   34.8718   29.3837   28.0969 O   0  0  0  0  0  0  0  0  0  0  0  0
   42.3036   24.4934   26.3425 O   0  0  0  0  0  0  0  0  0  0  0  0
   39.7551   28.4482   32.4966 F   0  0  0  0  0  0  0  0  0  0  0  0
   42.5222   28.7238   28.9613 H   0  0  0  0  0  0  0  0  0  0  0  0
   40.0116   25.2163   29.3710 H   0  0  0  0  0  0  0  0  0  0  0  0
   41.5350   29.6335   31.0115 H   0  0  0  0  0  0  0  0  0  0  0  0
   39.1037   26.1253   31.4490 H   0  0  0  0  0  0  0  0  0  0  0  0
   37.1082   30.5274   29.0492 H   0  0  0  0  0  0  0  0  0  0  0  0
   40.8010   29.0223   27.7611 H   0  0  0  0  0  0  0  0  0  0  0  0
   36.7244   25.7122   28.7142 H   0  0  0  0  0  0  0  0  0  0  0  0
   30.2912   24.7812   28.7132 H   0  0  0  0  0  0  0  0  0  0  0  0
   43.2905   24.6682   28.1443 H   0  0  0  0  0  0  0  0  0  0  0  0
   41.5467   24.2751   28.2181 H   0  0  0  0  0  0  0  0  0  0  0  0
   40.6782   24.9648   25.1584 H   0  0  0  0  0  0  0  0  0  0  0  0
   42.2131   25.7876   24.7537 H   0  0  0  0  0  0  0  0  0  0  0  0
   43.0124   26.8794   27.6056 H   0  0  0  0  0  0  0  0  0  0  0  0
   41.5618   27.5542   25.9638 H   0  0  0  0  0  0  0  0  0  0  0  0
   35.3589   23.1807   26.7161 H   0  0  0  0  0  0  0  0  0  0  0  0
   34.8930   21.6457   27.5514 H   0  0  0  0  0  0  0  0  0  0  0  0
   33.6624   22.9310   27.2834 H   0  0  0  0  0  0  0  0  0  0  0  0
   37.2415   23.5952   28.5087 H   0  0  0  0  0  0  0  0  0  0  0  0
   36.7594   22.0101   29.2105 H   0  0  0  0  0  0  0  0  0  0  0  0
   36.7681   23.4758   30.2547 H   0  0  0  0  0  0  0  0  0  0  0  0
   34.4600   22.8867   29.6568 H   0  0  0  0  0  0  0  0  0  0  0  0
   31.4949   29.2920   28.9192 H   0  0  0  0  0  0  0  0  0  0  0  0
   32.7140   29.3088   27.6305 H   0  0  0  0  0  0  0  0  0  0  0  0
   39.2362   25.7732   26.5321 H   0  0  0  0  0  0  0  0  0  0  0  0
  3  1  2  0
  4  2  1  0
 10  7  2  0
 10  9  1  0
 11  2  2  0
 11  1  1  0
 12  4  2  0
 12  3  1  0
 13  5  2  0
 14  9  2  0
 15  6  1  0
 16  9  1  0
 17 13  1  0
 17 10  1  0
 20 18  1  0
 20 11  1  0
 21 20  1  0
 21 19  1  0
 24 23  1  0
 24 22  1  0
 25  5  1  0
 25  6  2  0
 26  8  2  0
 26 14  1  0
 27  8  1  0
 27 16  2  0
 28 13  1  0
 28 15  2  0
 29 24  1  0
 29 14  1  0
 29  7  1  0
 30 16  1  0
 21 31  1  0
 31 15  1  0
 32 17  2  0
 33 19  1  0
 33 18  1  0
 34 12  1  0
  1 35  1  0
  2 36  1  0
  3 37  1  0
  4 38  1  0
  5 39  1  0
  6 40  1  0
  7 41  1  0
  8 42  1  0
 18 43  1  0
 18 44  1  0
 19 45  1  0
 19 46  1  0
 20 47  1  6
 21 48  1  6
 22 49  1  0
 22 50  1  0
 22 51  1  0
 23 52  1  0
 23 53  1  0
 23 54  1  0
 24 55  1  0
 30 56  1  0
 30 57  1  0
 31 58  1  0
M  END
