
     RDKit          3D

 38 40  0  0  0  0  0  0  0  0999 V2000
   24.3524    5.8285    4.3585 Cl  0  0  0  0  0  0  0  0  0  0  0  0
   26.5971    8.0156    3.6663 Cl  0  0  0  0  0  0  0  0  0  0  0  0
   27.5714    3.5939    3.5026 C   0  0  0  0  0  0  0  0  0  0  0  0
   28.8988   -0.6236    5.1363 C   0  0  0  0  0  0  0  0  0  0  0  0
   27.8718    2.2036    3.4793 N   0  0  0  0  0  0  0  0  0  0  0  0
   28.9602    1.5893    4.1318 C   0  0  0  0  0  0  0  0  0  0  0  0
   28.5687    4.5414    3.2305 C   0  0  0  0  0  0  0  0  0  0  0  0
   29.8808   -0.5017    6.1364 C   0  0  0  0  0  0  0  0  0  0  0  0
   29.7394    2.1999    4.9058 O   0  0  0  0  0  0  0  0  0  0  0  0
   29.0544    0.1383    3.8324 C   0  0  2  0  0  0  0  0  0  0  0  0
   28.2607    5.8988    3.2850 C   0  0  0  0  0  0  0  0  0  0  0  0
   29.7546   -1.1842    7.3424 C   0  0  0  0  0  0  0  0  0  0  0  0
   27.5888   -1.3495    2.2682 C   0  0  0  0  0  0  0  0  0  0  0  0
   26.9637    6.3086    3.6114 C   0  0  0  0  0  0  0  0  0  0  0  0
   28.6359   -1.9796    7.5871 C   0  0  0  0  0  0  0  0  0  0  0  0
   27.9218   -0.0821    2.9198 N   0  0  0  0  0  0  0  0  0  0  0  0
   28.5355   -2.6684    8.7934 O   0  0  0  0  0  0  0  0  0  0  0  0
   27.2394    1.1598    2.7568 C   0  0  0  0  0  0  0  0  0  0  0  0
   25.9804    5.3601    3.9150 C   0  0  0  0  0  0  0  0  0  0  0  0
   27.6213   -2.0630    6.6262 C   0  0  0  0  0  0  0  0  0  0  0  0
   25.9255    1.3664    1.8200 S   0  0  0  0  0  0  0  0  0  0  0  0
   26.2865    4.0083    3.8493 C   0  0  0  0  0  0  0  0  0  0  0  0
   27.7380   -1.3713    5.4193 C   0  0  0  0  0  0  0  0  0  0  0  0
   30.3810   -0.1499    3.1056 C   0  0  0  0  0  0  0  0  0  0  0  0
   29.5705    4.2292    2.9641 H   0  0  0  0  0  0  0  0  0  0  0  0
   30.7547    0.1181    5.9974 H   0  0  0  0  0  0  0  0  0  0  0  0
   29.0262    6.6321    3.0647 H   0  0  0  0  0  0  0  0  0  0  0  0
   30.5298   -1.0955    8.0930 H   0  0  0  0  0  0  0  0  0  0  0  0
   26.5676   -1.6663    2.5660 H   0  0  0  0  0  0  0  0  0  0  0  0
   27.6269   -1.2223    1.1664 H   0  0  0  0  0  0  0  0  0  0  0  0
   28.3072   -2.1416    2.5657 H   0  0  0  0  0  0  0  0  0  0  0  0
   27.6925   -3.1700    9.0476 H   0  0  0  0  0  0  0  0  0  0  0  0
   26.7364   -2.6562    6.8190 H   0  0  0  0  0  0  0  0  0  0  0  0
   25.5281    3.2772    4.0999 H   0  0  0  0  0  0  0  0  0  0  0  0
   26.9228   -1.4345    4.7115 H   0  0  0  0  0  0  0  0  0  0  0  0
   30.8565   -1.0652    3.5175 H   0  0  0  0  0  0  0  0  0  0  0  0
   31.0973    0.6942    3.1895 H   0  0  0  0  0  0  0  0  0  0  0  0
   30.1938   -0.3147    2.0224 H   0  0  0  0  0  0  0  0  0  0  0  0
  5  3  1  0
  6  5  1  0
  7  3  2  0
  8  4  2  0
  9  6  2  0
 10  6  1  0
 10  4  1  0
 11  7  1  0
 12  8  1  0
 14 11  2  0
 14  2  1  0
 15 12  2  0
 16 13  1  0
 16 10  1  0
 17 15  1  0
 18 16  1  0
 18  5  1  0
 19  1  1  0
 19 14  1  0
 20 15  1  0
 21 18  2  0
 22 19  2  0
 22  3  1  0
 23 20  2  0
 23  4  1  0
 10 24  1  6
  7 25  1  0
  8 26  1  0
 11 27  1  0
 12 28  1  0
 13 29  1  0
 13 30  1  0
 13 31  1  0
 17 32  1  0
 20 33  1  0
 22 34  1  0
 23 35  1  0
 24 36  1  0
 24 37  1  0
 24 38  1  0
M  END
