
     RDKit          3D

 25 25  0  0  0  0  0  0  0  0999 V2000
    0.0416   11.5518   10.6228 C   0  0  0  0  0  0  0  0  0  0  0  0
    0.3745   11.4115   11.8705 N   0  0  0  0  0  0  0  0  0  0  0  0
    1.0599   12.1638    9.6829 C   0  0  2  0  0  0  0  0  0  0  0  0
    1.5618   13.3597   10.2273 O   0  0  0  0  0  0  0  0  0  0  0  0
    0.4648   12.4553    8.2981 C   0  0  1  0  0  0  0  0  0  0  0  0
    1.5147   12.7093    7.3998 O   0  0  0  0  0  0  0  0  0  0  0  0
   -0.3751   11.2496    7.8286 C   0  0  2  0  0  0  0  0  0  0  0  0
   -0.7648   11.4161    6.4882 O   0  0  0  0  0  0  0  0  0  0  0  0
   -1.6230   11.1618    8.7344 C   0  0  2  0  0  0  0  0  0  0  0  0
   -1.2395   11.0967   10.1444 N   0  0  0  0  0  0  0  0  0  0  0  0
   -2.5190    9.9632    8.3944 C   0  0  0  0  0  0  0  0  0  0  0  0
   -2.5244    9.0395    9.4483 O   0  0  0  0  0  0  0  0  0  0  0  0
   -0.4105   10.7885   12.8201 O   0  0  0  0  0  0  0  0  0  0  0  0
    1.8878   11.4258    9.5551 H   0  0  0  0  0  0  0  0  0  0  0  0
    1.6509   14.0060    9.4786 H   0  0  0  0  0  0  0  0  0  0  0  0
   -0.1886   13.3591    8.3738 H   0  0  0  0  0  0  0  0  0  0  0  0
    1.4450   12.0365    6.6729 H   0  0  0  0  0  0  0  0  0  0  0  0
    0.2214   10.3110    7.9357 H   0  0  0  0  0  0  0  0  0  0  0  0
   -0.0215   11.0752    5.9252 H   0  0  0  0  0  0  0  0  0  0  0  0
   -2.2311   12.0821    8.5830 H   0  0  0  0  0  0  0  0  0  0  0  0
   -2.0281   10.9837   10.8175 H   0  0  0  0  0  0  0  0  0  0  0  0
   -3.5564   10.3241    8.2125 H   0  0  0  0  0  0  0  0  0  0  0  0
   -2.1598    9.4730    7.4621 H   0  0  0  0  0  0  0  0  0  0  0  0
   -3.1493    8.3174    9.1783 H   0  0  0  0  0  0  0  0  0  0  0  0
   -0.1770   10.7525   13.8028 H   0  0  0  0  0  0  0  0  0  0  0  0
  2  1  2  3
  3  1  1  0
  3  4  1  0
  5  3  1  0
  5  6  1  0
  7  5  1  0
  7  8  1  0
  9  7  1  0
 10  9  1  0
 10  1  1  0
  9 11  1  0
 12 11  1  0
 13  2  1  0
  3 14  1  6
  4 15  1  0
  5 16  1  1
  6 17  1  0
  7 18  1  6
  8 19  1  0
  9 20  1  1
 10 21  1  0
 11 22  1  0
 11 23  1  0
 12 24  1  0
 13 25  1  0
M  END
