
     RDKit          3D

 25 25  0  0  0  0  0  0  0  0999 V2000
    0.2198   10.8456   11.7206 C   0  0  0  0  0  0  0  0  0  0  0  0
    0.5527   10.7054   12.9683 N   0  0  0  0  0  0  0  0  0  0  0  0
    1.2381   11.4576   10.7806 C   0  0  2  0  0  0  0  0  0  0  0  0
    1.7400   12.6536   11.3251 O   0  0  0  0  0  0  0  0  0  0  0  0
    0.6430   11.7491    9.3959 C   0  0  1  0  0  0  0  0  0  0  0  0
    1.6929   12.0031    8.4976 O   0  0  0  0  0  0  0  0  0  0  0  0
   -0.1968   10.5435    8.9264 C   0  0  2  0  0  0  0  0  0  0  0  0
   -0.5866   10.7099    7.5860 O   0  0  0  0  0  0  0  0  0  0  0  0
   -1.4448   10.4556    9.8322 C   0  0  2  0  0  0  0  0  0  0  0  0
   -1.0613   10.3906   11.2422 N   0  0  0  0  0  0  0  0  0  0  0  0
   -2.3408    9.2571    9.4922 C   0  0  0  0  0  0  0  0  0  0  0  0
   -1.7910    8.5166    8.4369 O   0  0  0  0  0  0  0  0  0  0  0  0
   -0.2323   10.0824   13.9179 O   0  0  0  0  0  0  0  0  0  0  0  0
    2.0660   10.7196   10.6529 H   0  0  0  0  0  0  0  0  0  0  0  0
    2.7221   12.6512   11.1780 H   0  0  0  0  0  0  0  0  0  0  0  0
   -0.0104   12.6529    9.4716 H   0  0  0  0  0  0  0  0  0  0  0  0
    1.3222   12.5655    7.7680 H   0  0  0  0  0  0  0  0  0  0  0  0
    0.3996    9.6048    9.0335 H   0  0  0  0  0  0  0  0  0  0  0  0
   -0.4651   11.6703    7.3654 H   0  0  0  0  0  0  0  0  0  0  0  0
   -2.0529   11.3759    9.6808 H   0  0  0  0  0  0  0  0  0  0  0  0
   -1.8498   10.2775   11.9153 H   0  0  0  0  0  0  0  0  0  0  0  0
   -2.4359    8.6069   10.3909 H   0  0  0  0  0  0  0  0  0  0  0  0
   -3.3595    9.6105    9.2172 H   0  0  0  0  0  0  0  0  0  0  0  0
   -2.0927    8.9609    7.6023 H   0  0  0  0  0  0  0  0  0  0  0  0
   -1.2329    9.9695   13.8299 H   0  0  0  0  0  0  0  0  0  0  0  0
  2  1  2  3
  3  1  1  0
  3  4  1  0
  5  3  1  0
  5  6  1  0
  7  5  1  0
  7  8  1  0
  9  7  1  0
 10  9  1  0
 10  1  1  0
  9 11  1  0
 12 11  1  0
 13  2  1  0
  3 14  1  6
  4 15  1  0
  5 16  1  1
  6 17  1  0
  7 18  1  6
  8 19  1  0
  9 20  1  1
 10 21  1  0
 11 22  1  0
 11 23  1  0
 12 24  1  0
 13 25  1  0
M  END
