
     RDKit          3D

 81 84  0  0  0  0  0  0  0  0999 V2000
   20.0915   27.6573   15.6469 C   0  0  0  0  0  0  0  0  0  0  0  0
   18.7228   27.5794   15.3593 C   0  0  0  0  0  0  0  0  0  0  0  0
   18.0202   26.4010   15.6341 C   0  0  0  0  0  0  0  0  0  0  0  0
   18.6824   25.3173   16.2265 C   0  0  0  0  0  0  0  0  0  0  0  0
   20.0452   25.3956   16.4921 C   0  0  0  0  0  0  0  0  0  0  0  0
   20.7454   26.5484   16.2071 C   0  0  0  0  0  0  0  0  0  0  0  0
   17.8312   23.8472   16.6329 S   0  0  0  0  0  0  0  0  0  0  0  0
   16.8867   23.5318   15.5100 O   0  0  0  0  0  0  0  0  0  0  0  0
   18.8180   22.7199   16.7613 O   0  0  0  0  0  0  0  0  0  0  0  0
   16.9455   23.9985   18.1267 N   0  0  0  0  0  0  0  0  0  0  0  0
   17.7111   24.5605   19.2526 C   0  0  0  0  0  0  0  0  0  0  0  0
   18.1964   23.4767   20.2117 C   0  0  0  0  0  0  0  0  0  0  0  0
   19.4458   22.6799   19.8570 C   0  0  0  0  0  0  0  0  0  0  0  0
   17.0611   22.6305   20.7683 C   0  0  0  0  0  0  0  0  0  0  0  0
   15.6355   24.6445   17.9622 C   0  0  0  0  0  0  0  0  0  0  0  0
   14.5666   23.6676   18.4641 C   0  0  1  0  0  0  0  0  0  0  0  0
   13.3597   24.3144   18.7797 O   0  0  0  0  0  0  0  0  0  0  0  0
   14.3393   22.4989   17.4872 C   0  0  1  0  0  0  0  0  0  0  0  0
   13.4696   21.5397   18.1433 N   0  0  0  0  0  0  0  0  0  0  0  0
   13.8799   20.2394   18.5139 C   0  0  0  0  0  0  0  0  0  0  0  0
   14.8152   20.0539   19.3375 O   0  0  0  0  0  0  0  0  0  0  0  0
   13.2136   19.1800   17.9396 O   0  0  0  0  0  0  0  0  0  0  0  0
   13.6041   17.8306   18.1133 C   0  0  1  0  0  0  0  0  0  0  0  0
   13.9854   17.6676   19.5591 C   0  0  0  0  0  0  0  0  0  0  0  0
   12.7853   17.5570   20.2891 O   0  0  0  0  0  0  0  0  0  0  0  0
   11.8049   17.0473   19.4043 C   0  0  1  0  0  0  0  0  0  0  0  0
   10.6995   17.9319   19.3462 O   0  0  0  0  0  0  0  0  0  0  0  0
   10.4582   18.2558   17.9927 C   0  0  0  0  0  0  0  0  0  0  0  0
   11.2705   17.3146   17.1113 C   0  0  1  0  0  0  0  0  0  0  0  0
   12.4049   16.9134   18.0284 C   0  0  1  0  0  0  0  0  0  0  0  0
   13.6841   22.9259   16.1582 C   0  0  0  0  0  0  0  0  0  0  0  0
   14.4819   21.1173   14.5779 C   0  0  0  0  0  0  0  0  0  0  0  0
   14.2369   20.0048   13.7665 C   0  0  0  0  0  0  0  0  0  0  0  0
   12.9417   19.4970   13.6430 C   0  0  0  0  0  0  0  0  0  0  0  0
   11.8909   20.1016   14.3365 C   0  0  0  0  0  0  0  0  0  0  0  0
   12.1315   21.2108   15.1496 C   0  0  0  0  0  0  0  0  0  0  0  0
   13.4278   21.7337   15.2713 C   0  0  0  0  0  0  0  0  0  0  0  0
   20.8004   28.8240   15.3762 O   0  0  0  0  0  0  0  0  0  0  0  0
   22.2192   28.8518   15.4858 C   0  0  0  0  0  0  0  0  0  0  0  0
   10.5169   16.1397   16.8541 O   0  0  0  0  0  0  0  0  0  0  0  0
    9.7765   16.2538   15.6624 C   0  0  0  0  0  0  0  0  0  0  0  0
   18.2092   28.4257   14.9214 H   0  0  0  0  0  0  0  0  0  0  0  0
   16.9615   26.3461   15.4151 H   0  0  0  0  0  0  0  0  0  0  0  0
   20.5684   24.5609   16.9422 H   0  0  0  0  0  0  0  0  0  0  0  0
   21.7977   26.5544   16.4509 H   0  0  0  0  0  0  0  0  0  0  0  0
   18.5688   25.1701   18.9030 H   0  0  0  0  0  0  0  0  0  0  0  0
   17.1004   25.2555   19.8699 H   0  0  0  0  0  0  0  0  0  0  0  0
   18.5376   24.0650   21.0948 H   0  0  0  0  0  0  0  0  0  0  0  0
   20.2200   22.8122   20.6431 H   0  0  0  0  0  0  0  0  0  0  0  0
   19.2013   21.5998   19.7974 H   0  0  0  0  0  0  0  0  0  0  0  0
   19.8820   23.0176   18.8934 H   0  0  0  0  0  0  0  0  0  0  0  0
   16.7496   21.8731   20.0178 H   0  0  0  0  0  0  0  0  0  0  0  0
   16.1865   23.2684   21.0204 H   0  0  0  0  0  0  0  0  0  0  0  0
   17.3854   22.1039   21.6915 H   0  0  0  0  0  0  0  0  0  0  0  0
   15.4436   24.9547   16.9176 H   0  0  0  0  0  0  0  0  0  0  0  0
   15.5457   25.6010   18.5222 H   0  0  0  0  0  0  0  0  0  0  0  0
   14.9330   23.2366   19.4172 H   0  0  0  0  0  0  0  0  0  0  0  0
   13.1504   24.9524   18.0488 H   0  0  0  0  0  0  0  0  0  0  0  0
   15.3226   22.0331   17.2576 H   0  0  0  0  0  0  0  0  0  0  0  0
   12.4871   21.8221   18.3644 H   0  0  0  0  0  0  0  0  0  0  0  0
   14.4304   17.5175   17.4372 H   0  0  0  0  0  0  0  0  0  0  0  0
   14.5733   18.5381   19.9222 H   0  0  0  0  0  0  0  0  0  0  0  0
   14.5916   16.7450   19.7012 H   0  0  0  0  0  0  0  0  0  0  0  0
   11.4561   16.0571   19.7712 H   0  0  0  0  0  0  0  0  0  0  0  0
   10.7410   19.3134   17.8099 H   0  0  0  0  0  0  0  0  0  0  0  0
    9.3714   18.1679   17.7852 H   0  0  0  0  0  0  0  0  0  0  0  0
   11.6541   17.8089   16.1870 H   0  0  0  0  0  0  0  0  0  0  0  0
   12.7459   15.8692   17.8366 H   0  0  0  0  0  0  0  0  0  0  0  0
   14.3260   23.6313   15.5973 H   0  0  0  0  0  0  0  0  0  0  0  0
   12.7263   23.4542   16.3537 H   0  0  0  0  0  0  0  0  0  0  0  0
   15.4916   21.4939   14.6656 H   0  0  0  0  0  0  0  0  0  0  0  0
   15.0530   19.5368   13.2314 H   0  0  0  0  0  0  0  0  0  0  0  0
   12.7517   18.6451   13.0033 H   0  0  0  0  0  0  0  0  0  0  0  0
   10.8819   19.7285   14.2280 H   0  0  0  0  0  0  0  0  0  0  0  0
   11.3038   21.6632   15.6816 H   0  0  0  0  0  0  0  0  0  0  0  0
   22.6496   28.2166   14.6848 H   0  0  0  0  0  0  0  0  0  0  0  0
   22.6020   29.8844   15.3396 H   0  0  0  0  0  0  0  0  0  0  0  0
   22.5465   28.4369   16.4636 H   0  0  0  0  0  0  0  0  0  0  0  0
   10.4282   16.1370   14.7744 H   0  0  0  0  0  0  0  0  0  0  0  0
    9.3400   17.2724   15.6170 H   0  0  0  0  0  0  0  0  0  0  0  0
    8.9310   15.5323   15.6436 H   0  0  0  0  0  0  0  0  0  0  0  0
  2  1  2  0
  3  2  1  0
  4  3  2  0
  5  4  1  0
  6  5  2  0
  6  1  1  0
  7  4  1  0
  8  7  2  0
  9  7  2  0
  7 10  1  0
 11 10  1  0
 12 11  1  0
 12 13  1  0
 14 12  1  0
 15 10  1  0
 16 15  1  0
 16 17  1  0
 18 16  1  0
 19 18  1  0
 20 19  1  0
 21 20  2  0
 22 20  1  0
 23 22  1  0
 24 23  1  0
 25 24  1  0
 26 25  1  0
 27 26  1  0
 28 27  1  0
 29 28  1  0
 30 29  1  0
 30 26  1  0
 30 23  1  0
 18 31  1  0
 33 32  2  0
 34 33  1  0
 35 34  2  0
 36 35  1  0
 37 36  2  0
 37 32  1  0
 37 31  1  0
 38  1  1  0
 39 38  1  0
 29 40  1  0
 41 40  1  0
  2 42  1  0
  3 43  1  0
  5 44  1  0
  6 45  1  0
 11 46  1  0
 11 47  1  0
 12 48  1  0
 13 49  1  0
 13 50  1  0
 13 51  1  0
 14 52  1  0
 14 53  1  0
 14 54  1  0
 15 55  1  0
 15 56  1  0
 16 57  1  1
 17 58  1  0
 18 59  1  6
 19 60  1  0
 23 61  1  6
 24 62  1  0
 24 63  1  0
 26 64  1  1
 28 65  1  0
 28 66  1  0
 29 67  1  6
 30 68  1  6
 31 69  1  0
 31 70  1  0
 32 71  1  0
 33 72  1  0
 34 73  1  0
 35 74  1  0
 36 75  1  0
 39 76  1  0
 39 77  1  0
 39 78  1  0
 41 79  1  0
 41 80  1  0
 41 81  1  0
M  END
