
     RDKit          3D

 35 34  0  0  0  0  0  0  0  0999 V2000
  -27.7020    8.1472  215.4397 C   0  0  0  0  0  0  0  0  0  0  0  0
  -28.8271    4.7955  213.9161 P   0  0  0  0  0  0  0  0  0  0  0  0
  -30.1995   12.9766  212.7857 P   0  0  0  0  0  0  0  0  0  0  0  0
  -29.5404    3.5085  213.5711 O   0  0  0  0  0  0  0  0  0  0  0  0
  -28.8669    5.1024  215.5649 O   0  0  0  0  0  0  0  0  0  0  0  0
  -27.2232    4.7108  213.4303 O   0  0  0  0  0  0  0  0  0  0  0  0
  -31.0685   11.7659  212.5359 O   0  0  0  0  0  0  0  0  0  0  0  0
  -31.0271   14.1077  213.7022 O   0  0  0  0  0  0  0  0  0  0  0  0
  -29.7248   13.6736  211.3334 O   0  0  0  0  0  0  0  0  0  0  0  0
  -29.5036    7.2460  213.9021 C   0  0  0  0  0  0  0  0  0  0  0  0
  -29.5041    6.0999  213.0878 O   0  0  0  0  0  0  0  0  0  0  0  0
  -28.0510    7.7710  213.9956 C   0  0  2  0  0  0  0  0  0  0  0  0
  -27.2187    6.7079  213.5749 O   0  0  0  0  0  0  0  0  0  0  0  0
  -27.8457    8.9813  213.0237 C   0  0  2  0  0  0  0  0  0  0  0  0
  -26.4974    9.3806  213.0541 O   0  0  0  0  0  0  0  0  0  0  0  0
  -28.7626   10.2115  213.2992 C   0  0  2  0  0  0  0  0  0  0  0  0
  -29.9421   10.1051  212.5398 O   0  0  0  0  0  0  0  0  0  0  0  0
  -28.0799   11.5646  213.0118 C   0  0  0  0  0  0  0  0  0  0  0  0
  -28.8141   12.5728  213.6621 O   0  0  0  0  0  0  0  0  0  0  0  0
  -26.7127    8.8856  215.6892 O   0  0  0  0  0  0  0  0  0  0  0  0
  -28.4853    7.7128  216.4957 O   0  0  0  0  0  0  0  0  0  0  0  0
  -28.7021    6.0753  215.6515 H   0  0  0  0  0  0  0  0  0  0  0  0
  -26.7003    4.8140  214.2651 H   0  0  0  0  0  0  0  0  0  0  0  0
  -30.4007   14.8700  213.7881 H   0  0  0  0  0  0  0  0  0  0  0  0
  -30.5686   13.9699  210.9078 H   0  0  0  0  0  0  0  0  0  0  0  0
  -29.8851    7.0044  214.9190 H   0  0  0  0  0  0  0  0  0  0  0  0
  -30.1444    8.0388  213.4522 H   0  0  0  0  0  0  0  0  0  0  0  0
  -26.2687    6.9821  213.6573 H   0  0  0  0  0  0  0  0  0  0  0  0
  -28.0813    8.6136  211.9941 H   0  0  0  0  0  0  0  0  0  0  0  0
  -26.0326    8.9514  212.2885 H   0  0  0  0  0  0  0  0  0  0  0  0
  -29.0505   10.2251  214.3709 H   0  0  0  0  0  0  0  0  0  0  0  0
  -29.9450   10.8417  211.8737 H   0  0  0  0  0  0  0  0  0  0  0  0
  -27.0619   11.5660  213.4562 H   0  0  0  0  0  0  0  0  0  0  0  0
  -27.9548   11.6953  211.9101 H   0  0  0  0  0  0  0  0  0  0  0  0
  -28.2647    7.9707  217.4502 H   0  0  0  0  0  0  0  0  0  0  0  0
  4  2  2  0
  5  2  1  0
  6  2  1  0
  7  3  2  0
  8  3  1  0
  9  3  1  0
 11  2  1  0
 11 10  1  0
 12 10  1  0
 12  1  1  0
 12 13  1  6
 14 12  1  0
 14 15  1  0
 16 14  1  0
 16 17  1  0
 18 16  1  0
 19 18  1  0
 19  3  1  0
 20  1  2  0
 21  1  1  0
  5 22  1  0
  6 23  1  0
  8 24  1  0
  9 25  1  0
 10 26  1  0
 10 27  1  0
 13 28  1  0
 14 29  1  6
 15 30  1  0
 16 31  1  1
 17 32  1  0
 18 33  1  0
 18 34  1  0
 21 35  1  0
M  END
