
     RDKit          3D

 35 34  0  0  0  0  0  0  0  0999 V2000
   43.7586   11.8028  114.6691 C   0  0  0  0  0  0  0  0  0  0  0  0
   46.4803   15.2255  115.4748 P   0  0  0  0  0  0  0  0  0  0  0  0
   47.6289    6.5681  112.8051 P   0  0  0  0  0  0  0  0  0  0  0  0
   47.4450   15.7245  114.4235 O   0  0  0  0  0  0  0  0  0  0  0  0
   47.2664   14.3557  116.6738 O   0  0  0  0  0  0  0  0  0  0  0  0
   45.6899   16.5217  116.1905 O   0  0  0  0  0  0  0  0  0  0  0  0
   48.2755    6.6405  111.4413 O   0  0  0  0  0  0  0  0  0  0  0  0
   48.5693    5.6547  113.8471 O   0  0  0  0  0  0  0  0  0  0  0  0
   46.0991    5.8844  112.6949 O   0  0  0  0  0  0  0  0  0  0  0  0
   45.8515   13.1317  114.1706 C   0  0  0  0  0  0  0  0  0  0  0  0
   45.2809   14.2616  114.7841 O   0  0  0  0  0  0  0  0  0  0  0  0
   44.7031   12.2882  113.5668 C   0  0  2  0  0  0  0  0  0  0  0  0
   43.9991   13.1497  112.6941 O   0  0  0  0  0  0  0  0  0  0  0  0
   45.2703   11.0894  112.7337 C   0  0  2  0  0  0  0  0  0  0  0  0
   44.2052   10.3977  112.1282 O   0  0  0  0  0  0  0  0  0  0  0  0
   46.1567   10.0874  113.5347 C   0  0  2  0  0  0  0  0  0  0  0  0
   47.1652   10.7891  114.2193 O   0  0  0  0  0  0  0  0  0  0  0  0
   46.7935    8.9850  112.6618 C   0  0  0  0  0  0  0  0  0  0  0  0
   47.4854    8.0985  113.5082 O   0  0  0  0  0  0  0  0  0  0  0  0
   42.5137   11.7809  114.4831 O   0  0  0  0  0  0  0  0  0  0  0  0
   44.2552   11.3482  115.8786 O   0  0  0  0  0  0  0  0  0  0  0  0
   48.0196   13.9045  116.2154 H   0  0  0  0  0  0  0  0  0  0  0  0
   46.4049   17.0335  116.6465 H   0  0  0  0  0  0  0  0  0  0  0  0
   48.0593    5.6350  114.6959 H   0  0  0  0  0  0  0  0  0  0  0  0
   46.0575    5.2365  113.4429 H   0  0  0  0  0  0  0  0  0  0  0  0
   46.4186   12.5250  114.9111 H   0  0  0  0  0  0  0  0  0  0  0  0
   46.5398   13.4440  113.3522 H   0  0  0  0  0  0  0  0  0  0  0  0
   43.5911   13.8870  113.2179 H   0  0  0  0  0  0  0  0  0  0  0  0
   45.9085   11.5307  111.9283 H   0  0  0  0  0  0  0  0  0  0  0  0
   44.1163   10.7266  111.1952 H   0  0  0  0  0  0  0  0  0  0  0  0
   45.5330    9.5682  114.2918 H   0  0  0  0  0  0  0  0  0  0  0  0
   47.7629   11.2034  113.5431 H   0  0  0  0  0  0  0  0  0  0  0  0
   45.9906    8.4002  112.1646 H   0  0  0  0  0  0  0  0  0  0  0  0
   47.4054    9.4501  111.8523 H   0  0  0  0  0  0  0  0  0  0  0  0
   43.6339   11.0147  116.6059 H   0  0  0  0  0  0  0  0  0  0  0  0
  4  2  2  0
  5  2  1  0
  6  2  1  0
  7  3  2  0
  8  3  1  0
  9  3  1  0
 11 10  1  0
 11  2  1  0
 12  1  1  0
 12 10  1  0
 12 13  1  6
 14 12  1  0
 14 15  1  0
 16 14  1  0
 16 17  1  0
 18 16  1  0
 19 18  1  0
 19  3  1  0
 20  1  2  0
 21  1  1  0
  5 22  1  0
  6 23  1  0
  8 24  1  0
  9 25  1  0
 10 26  1  0
 10 27  1  0
 13 28  1  0
 14 29  1  6
 15 30  1  0
 16 31  1  1
 17 32  1  0
 18 33  1  0
 18 34  1  0
 21 35  1  0
M  END
