
     RDKit          3D

 35 34  0  0  0  0  0  0  0  0999 V2000
   42.8768   12.4305  114.3566 C   0  0  0  0  0  0  0  0  0  0  0  0
   46.1226   15.4133  114.9393 P   0  0  0  0  0  0  0  0  0  0  0  0
   46.1377    7.6341  112.8218 P   0  0  0  0  0  0  0  0  0  0  0  0
   47.0604   15.7818  113.8126 O   0  0  0  0  0  0  0  0  0  0  0  0
   46.8695   14.4231  116.0679 O   0  0  0  0  0  0  0  0  0  0  0  0
   45.5895   16.8004  115.7198 O   0  0  0  0  0  0  0  0  0  0  0  0
   45.4407    7.9633  114.1216 O   0  0  0  0  0  0  0  0  0  0  0  0
   45.7923    6.0624  112.3584 O   0  0  0  0  0  0  0  0  0  0  0  0
   47.7996    7.8122  112.9843 O   0  0  0  0  0  0  0  0  0  0  0  0
   45.0925   13.4499  113.6887 C   0  0  0  0  0  0  0  0  0  0  0  0
   44.7438   14.6420  114.3488 O   0  0  0  0  0  0  0  0  0  0  0  0
   43.7886   12.7892  113.1807 C   0  0  2  0  0  0  0  0  0  0  0  0
   43.1481   13.7549  112.3704 O   0  0  0  0  0  0  0  0  0  0  0  0
   44.1060   11.5323  112.3018 C   0  0  2  0  0  0  0  0  0  0  0  0
   42.9356   10.7681  112.1420 O   0  0  0  0  0  0  0  0  0  0  0  0
   45.2551   10.6239  112.8364 C   0  0  2  0  0  0  0  0  0  0  0  0
   46.1066   11.3755  113.6661 O   0  0  0  0  0  0  0  0  0  0  0  0
   46.0819    9.9468  111.7226 C   0  0  0  0  0  0  0  0  0  0  0  0
   45.6099    8.6305  111.5627 O   0  0  0  0  0  0  0  0  0  0  0  0
   41.6573   12.1803  114.1693 O   0  0  0  0  0  0  0  0  0  0  0  0
   43.3807   12.3422  115.6429 O   0  0  0  0  0  0  0  0  0  0  0  0
   47.2891   13.6980  115.5395 H   0  0  0  0  0  0  0  0  0  0  0  0
   44.7030   16.5579  116.0891 H   0  0  0  0  0  0  0  0  0  0  0  0
   45.0238    5.7957  112.9234 H   0  0  0  0  0  0  0  0  0  0  0  0
   47.9503    7.8976  113.9594 H   0  0  0  0  0  0  0  0  0  0  0  0
   45.6243   12.7578  114.3788 H   0  0  0  0  0  0  0  0  0  0  0  0
   45.7497   13.6705  112.8165 H   0  0  0  0  0  0  0  0  0  0  0  0
   43.8250   14.2153  111.8098 H   0  0  0  0  0  0  0  0  0  0  0  0
   44.4198   11.9126  111.2980 H   0  0  0  0  0  0  0  0  0  0  0  0
   42.5273   11.0103  111.2695 H   0  0  0  0  0  0  0  0  0  0  0  0
   44.8226    9.8057  113.4489 H   0  0  0  0  0  0  0  0  0  0  0  0
   46.5440   12.0699  113.1070 H   0  0  0  0  0  0  0  0  0  0  0  0
   45.9057   10.4746  110.7613 H   0  0  0  0  0  0  0  0  0  0  0  0
   47.1708   10.0407  111.9498 H   0  0  0  0  0  0  0  0  0  0  0  0
   44.3080   11.9731  115.8163 H   0  0  0  0  0  0  0  0  0  0  0  0
  4  2  2  0
  5  2  1  0
  6  2  1  0
  7  3  2  0
  8  3  1  0
  9  3  1  0
 11 10  1  0
 11  2  1  0
 12  1  1  0
 12 10  1  0
 12 13  1  6
 14 12  1  0
 14 15  1  0
 16 14  1  0
 16 17  1  0
 18 16  1  0
 19 18  1  0
 19  3  1  0
 20  1  2  0
 21  1  1  0
  5 22  1  0
  6 23  1  0
  8 24  1  0
  9 25  1  0
 10 26  1  0
 10 27  1  0
 13 28  1  0
 14 29  1  6
 15 30  1  0
 16 31  1  1
 17 32  1  0
 18 33  1  0
 18 34  1  0
 21 35  1  0
M  END
