
     RDKit          3D

 35 34  0  0  0  0  0  0  0  0999 V2000
   43.7562   11.8035  113.9376 C   0  0  0  0  0  0  0  0  0  0  0  0
   46.4637   15.2391  114.7367 P   0  0  0  0  0  0  0  0  0  0  0  0
   47.2102    6.8279  112.9563 P   0  0  0  0  0  0  0  0  0  0  0  0
   47.4282   15.7384  113.6855 O   0  0  0  0  0  0  0  0  0  0  0  0
   47.2510   14.3762  115.9399 O   0  0  0  0  0  0  0  0  0  0  0  0
   45.6671   16.5347  115.4469 O   0  0  0  0  0  0  0  0  0  0  0  0
   47.9677    7.4877  111.8275 O   0  0  0  0  0  0  0  0  0  0  0  0
   48.2733    6.0741  114.0080 O   0  0  0  0  0  0  0  0  0  0  0  0
   46.1279    5.6938  112.3541 O   0  0  0  0  0  0  0  0  0  0  0  0
   45.8449   13.1388  113.4383 C   0  0  0  0  0  0  0  0  0  0  0  0
   45.2690   14.2685  114.0472 O   0  0  0  0  0  0  0  0  0  0  0  0
   44.7007   12.2890  112.8353 C   0  0  2  0  0  0  0  0  0  0  0  0
   43.9950   13.1450  111.9587 O   0  0  0  0  0  0  0  0  0  0  0  0
   45.2738   11.0896  112.0071 C   0  0  2  0  0  0  0  0  0  0  0  0
   44.2124   10.3920  111.4021 O   0  0  0  0  0  0  0  0  0  0  0  0
   46.1627   10.0936  112.8128 C   0  0  2  0  0  0  0  0  0  0  0  0
   47.3871    9.9052  112.1468 O   0  0  0  0  0  0  0  0  0  0  0  0
   45.4933    8.7255  113.0636 C   0  0  0  0  0  0  0  0  0  0  0  0
   46.3511    7.9579  113.8737 O   0  0  0  0  0  0  0  0  0  0  0  0
   42.5113   11.7817  113.7516 O   0  0  0  0  0  0  0  0  0  0  0  0
   44.2528   11.3490  115.1471 O   0  0  0  0  0  0  0  0  0  0  0  0
   48.0067   13.9264  115.4841 H   0  0  0  0  0  0  0  0  0  0  0  0
   46.3794   17.0506  115.9024 H   0  0  0  0  0  0  0  0  0  0  0  0
   47.6946    5.6473  114.6891 H   0  0  0  0  0  0  0  0  0  0  0  0
   45.6106    6.1800  111.6636 H   0  0  0  0  0  0  0  0  0  0  0  0
   46.4131   12.5367  114.1817 H   0  0  0  0  0  0  0  0  0  0  0  0
   46.5334   13.4510  112.6200 H   0  0  0  0  0  0  0  0  0  0  0  0
   43.6375   13.9169  112.4694 H   0  0  0  0  0  0  0  0  0  0  0  0
   45.9118   11.5307  111.2013 H   0  0  0  0  0  0  0  0  0  0  0  0
   44.1238   10.7175  110.4679 H   0  0  0  0  0  0  0  0  0  0  0  0
   46.3843   10.5233  113.8118 H   0  0  0  0  0  0  0  0  0  0  0  0
   47.1982    9.4626  111.2781 H   0  0  0  0  0  0  0  0  0  0  0  0
   44.5533    8.8755  113.6359 H   0  0  0  0  0  0  0  0  0  0  0  0
   45.2098    8.2590  112.0899 H   0  0  0  0  0  0  0  0  0  0  0  0
   43.6315   11.0155  115.8744 H   0  0  0  0  0  0  0  0  0  0  0  0
  4  2  2  0
  5  2  1  0
  6  2  1  0
  7  3  2  0
  8  3  1  0
  9  3  1  0
 11 10  1  0
 11  2  1  0
 12  1  1  0
 12 10  1  0
 12 13  1  6
 14 12  1  0
 14 15  1  0
 16 14  1  0
 16 17  1  0
 18 16  1  0
 19 18  1  0
 19  3  1  0
 20  1  2  0
 21  1  1  0
  5 22  1  0
  6 23  1  0
  8 24  1  0
  9 25  1  0
 10 26  1  0
 10 27  1  0
 13 28  1  0
 14 29  1  6
 15 30  1  0
 16 31  1  1
 17 32  1  0
 18 33  1  0
 18 34  1  0
 21 35  1  0
M  END
