
     RDKit          3D

 35 34  0  0  0  0  0  0  0  0999 V2000
    3.5924   42.7436  163.6076 C   0  0  0  0  0  0  0  0  0  0  0  0
    5.4047   46.7589  164.1157 P   0  0  0  0  0  0  0  0  0  0  0  0
   -2.8324   42.9991  165.1544 P   0  0  0  0  0  0  0  0  0  0  0  0
    5.4302   47.4576  165.4553 O   0  0  0  0  0  0  0  0  0  0  0  0
    4.2675   47.4366  163.0863 O   0  0  0  0  0  0  0  0  0  0  0  0
    6.9125   46.8647  163.3864 O   0  0  0  0  0  0  0  0  0  0  0  0
   -3.0286   42.7091  166.6239 O   0  0  0  0  0  0  0  0  0  0  0  0
   -4.0190   44.0444  164.6014 O   0  0  0  0  0  0  0  0  0  0  0  0
   -2.8939   41.5770  164.2631 O   0  0  0  0  0  0  0  0  0  0  0  0
    3.8293   44.9083  164.8871 C   0  0  0  0  0  0  0  0  0  0  0  0
    5.0885   45.1119  164.2945 O   0  0  0  0  0  0  0  0  0  0  0  0
    3.6052   43.3814  164.9987 C   0  0  2  0  0  0  0  0  0  0  0  0
    4.7070   42.8780  165.7293 O   0  0  0  0  0  0  0  0  0  0  0  0
    2.2890   43.0617  165.7899 C   0  0  2  0  0  0  0  0  0  0  0  0
    2.0443   41.6768  165.7437 O   0  0  0  0  0  0  0  0  0  0  0  0
    1.0141   43.8328  165.3190 C   0  0  2  0  0  0  0  0  0  0  0  0
    0.8608   45.0052  166.0811 O   0  0  0  0  0  0  0  0  0  0  0  0
   -0.2828   42.9926  165.3915 C   0  0  0  0  0  0  0  0  0  0  0  0
   -1.3470   43.7558  164.8715 O   0  0  0  0  0  0  0  0  0  0  0  0
    3.9570   41.5494  163.4446 O   0  0  0  0  0  0  0  0  0  0  0  0
    3.1575   43.4592  162.5054 O   0  0  0  0  0  0  0  0  0  0  0  0
    3.5242   47.7240  163.6745 H   0  0  0  0  0  0  0  0  0  0  0  0
    7.1933   45.9249  163.2485 H   0  0  0  0  0  0  0  0  0  0  0  0
   -3.8265   44.1568  163.6364 H   0  0  0  0  0  0  0  0  0  0  0  0
   -2.1783   41.6726  163.5851 H   0  0  0  0  0  0  0  0  0  0  0  0
    3.0231   45.3670  164.2726 H   0  0  0  0  0  0  0  0  0  0  0  0
    3.8077   45.3543  165.9077 H   0  0  0  0  0  0  0  0  0  0  0  0
    4.6278   41.8920  165.8061 H   0  0  0  0  0  0  0  0  0  0  0  0
    2.4800   43.3517  166.8530 H   0  0  0  0  0  0  0  0  0  0  0  0
    2.5209   41.3061  164.9549 H   0  0  0  0  0  0  0  0  0  0  0  0
    1.1362   44.1335  164.2582 H   0  0  0  0  0  0  0  0  0  0  0  0
    0.6925   44.7377  167.0224 H   0  0  0  0  0  0  0  0  0  0  0  0
   -0.1749   42.0998  164.7394 H   0  0  0  0  0  0  0  0  0  0  0  0
   -0.4293   42.6152  166.4318 H   0  0  0  0  0  0  0  0  0  0  0  0
    3.1384   43.0385  161.5841 H   0  0  0  0  0  0  0  0  0  0  0  0
  4  2  2  0
  5  2  1  0
  6  2  1  0
  7  3  2  0
  8  3  1  0
  9  3  1  0
 11 10  1  0
 11  2  1  0
 12  1  1  0
 12 10  1  0
 12 13  1  1
 14 12  1  0
 14 15  1  0
 16 14  1  0
 16 17  1  0
 18 16  1  0
 19 18  1  0
 19  3  1  0
 20  1  2  0
 21  1  1  0
  5 22  1  0
  6 23  1  0
  8 24  1  0
  9 25  1  0
 10 26  1  0
 10 27  1  0
 13 28  1  0
 14 29  1  1
 15 30  1  0
 16 31  1  6
 17 32  1  0
 18 33  1  0
 18 34  1  0
 21 35  1  0
M  END
