
     RDKit          3D

 35 34  0  0  0  0  0  0  0  0999 V2000
   16.3906  -22.5271  210.6550 C   0  0  0  0  0  0  0  0  0  0  0  0
   14.0344  -26.3319  210.6846 P   0  0  0  0  0  0  0  0  0  0  0  0
   14.2993  -19.5163  216.0945 P   0  0  0  0  0  0  0  0  0  0  0  0
   12.5236  -26.3178  210.6983 O   0  0  0  0  0  0  0  0  0  0  0  0
   14.6597  -26.7579  212.1816 O   0  0  0  0  0  0  0  0  0  0  0  0
   14.5814  -27.4366  209.5456 O   0  0  0  0  0  0  0  0  0  0  0  0
   12.8813  -19.9721  215.8393 O   0  0  0  0  0  0  0  0  0  0  0  0
   14.7816  -19.9544  217.6371 O   0  0  0  0  0  0  0  0  0  0  0  0
   14.4252  -17.8505  215.9274 O   0  0  0  0  0  0  0  0  0  0  0  0
   14.2675  -23.8312  211.1342 C   0  0  0  0  0  0  0  0  0  0  0  0
   14.6542  -24.8307  210.2220 O   0  0  0  0  0  0  0  0  0  0  0  0
   14.8605  -22.4835  210.6494 C   0  0  2  0  0  0  0  0  0  0  0  0
   14.4038  -22.3099  209.3224 O   0  0  0  0  0  0  0  0  0  0  0  0
   14.3309  -21.2948  211.5216 C   0  0  2  0  0  0  0  0  0  0  0  0
   14.8127  -20.0805  210.9990 O   0  0  0  0  0  0  0  0  0  0  0  0
   14.6770  -21.3838  213.0401 C   0  0  2  0  0  0  0  0  0  0  0  0
   13.6175  -21.9970  213.7320 O   0  0  0  0  0  0  0  0  0  0  0  0
   14.9997  -20.0192  213.6868 C   0  0  0  0  0  0  0  0  0  0  0  0
   15.3851  -20.2409  215.0224 O   0  0  0  0  0  0  0  0  0  0  0  0
   17.0563  -21.7354  209.9366 O   0  0  0  0  0  0  0  0  0  0  0  0
   17.0727  -23.4056  211.4787 O   0  0  0  0  0  0  0  0  0  0  0  0
   14.0313  -26.3734  212.8437 H   0  0  0  0  0  0  0  0  0  0  0  0
   15.5690  -27.3995  209.6112 H   0  0  0  0  0  0  0  0  0  0  0  0
   15.7011  -19.5968  217.7251 H   0  0  0  0  0  0  0  0  0  0  0  0
   14.9810  -17.7191  215.1183 H   0  0  0  0  0  0  0  0  0  0  0  0
   14.6412  -24.0649  212.1558 H   0  0  0  0  0  0  0  0  0  0  0  0
   13.1570  -23.7474  211.1643 H   0  0  0  0  0  0  0  0  0  0  0  0
   14.7941  -21.4790  208.9459 H   0  0  0  0  0  0  0  0  0  0  0  0
   13.2164  -21.3014  211.4290 H   0  0  0  0  0  0  0  0  0  0  0  0
   14.3056  -19.3401  211.4250 H   0  0  0  0  0  0  0  0  0  0  0  0
   15.5786  -22.0167  213.1765 H   0  0  0  0  0  0  0  0  0  0  0  0
   13.5308  -22.9273  213.3959 H   0  0  0  0  0  0  0  0  0  0  0  0
   15.8719  -19.5668  213.1686 H   0  0  0  0  0  0  0  0  0  0  0  0
   14.1420  -19.3189  213.5453 H   0  0  0  0  0  0  0  0  0  0  0  0
   16.5987  -23.8905  212.2313 H   0  0  0  0  0  0  0  0  0  0  0  0
  4  2  2  0
  5  2  1  0
  6  2  1  0
  7  3  2  0
  8  3  1  0
  9  3  1  0
 11 10  1  0
 11  2  1  0
 12 10  1  0
 12  1  1  0
 12 13  1  6
 14 12  1  0
 14 15  1  0
 16 14  1  0
 16 17  1  0
 18 16  1  0
 19 18  1  0
 19  3  1  0
 20  1  2  0
 21  1  1  0
  5 22  1  0
  6 23  1  0
  8 24  1  0
  9 25  1  0
 10 26  1  0
 10 27  1  0
 13 28  1  0
 14 29  1  1
 15 30  1  0
 16 31  1  6
 17 32  1  0
 18 33  1  0
 18 34  1  0
 21 35  1  0
M  END
