
     RDKit          3D

 35 34  0  0  0  0  0  0  0  0999 V2000
   31.4800  -13.4822   50.6265 C   0  0  0  0  0  0  0  0  0  0  0  0
   29.0930  -17.1899   50.2452 P   0  0  0  0  0  0  0  0  0  0  0  0
   36.6364  -13.0079   53.7256 P   0  0  0  0  0  0  0  0  0  0  0  0
   28.3398  -17.3130   51.5492 O   0  0  0  0  0  0  0  0  0  0  0  0
   29.9498  -18.5885   49.8933 O   0  0  0  0  0  0  0  0  0  0  0  0
   28.0135  -16.8997   48.9927 O   0  0  0  0  0  0  0  0  0  0  0  0
   36.5628  -11.6020   54.2741 O   0  0  0  0  0  0  0  0  0  0  0  0
   37.9553  -13.8127   54.3715 O   0  0  0  0  0  0  0  0  0  0  0  0
   36.7653  -12.9825   52.0514 O   0  0  0  0  0  0  0  0  0  0  0  0
   30.6987  -15.7020   51.5611 C   0  0  0  0  0  0  0  0  0  0  0  0
   30.1513  -15.8735   50.2749 O   0  0  0  0  0  0  0  0  0  0  0  0
   30.8333  -14.1803   51.8259 C   0  0  2  0  0  0  0  0  0  0  0  0
   29.5151  -13.6946   51.9865 O   0  0  0  0  0  0  0  0  0  0  0  0
   31.6307  -13.9058   53.1503 C   0  0  2  0  0  0  0  0  0  0  0  0
   31.5160  -12.5456   53.4922 O   0  0  0  0  0  0  0  0  0  0  0  0
   33.1375  -14.3128   53.1232 C   0  0  2  0  0  0  0  0  0  0  0  0
   33.3077  -15.5416   53.7861 O   0  0  0  0  0  0  0  0  0  0  0  0
   34.0862  -13.2589   53.7390 C   0  0  0  0  0  0  0  0  0  0  0  0
   35.2689  -13.9104   54.1403 O   0  0  0  0  0  0  0  0  0  0  0  0
   31.2555  -12.2647   50.3975 O   0  0  0  0  0  0  0  0  0  0  0  0
   32.3403  -14.1659   49.7842 O   0  0  0  0  0  0  0  0  0  0  0  0
   30.5158  -18.7525   50.6894 H   0  0  0  0  0  0  0  0  0  0  0  0
   27.6843  -17.7961   48.7297 H   0  0  0  0  0  0  0  0  0  0  0  0
   38.7196  -13.5416   53.8029 H   0  0  0  0  0  0  0  0  0  0  0  0
   37.3116  -13.7779   51.8281 H   0  0  0  0  0  0  0  0  0  0  0  0
   31.6965  -16.1890   51.6325 H   0  0  0  0  0  0  0  0  0  0  0  0
   30.0233  -16.1440   52.3288 H   0  0  0  0  0  0  0  0  0  0  0  0
   29.0762  -13.6320   51.0989 H   0  0  0  0  0  0  0  0  0  0  0  0
   31.1366  -14.5129   53.9491 H   0  0  0  0  0  0  0  0  0  0  0  0
   32.4275  -12.1965   53.6761 H   0  0  0  0  0  0  0  0  0  0  0  0
   33.4594  -14.4500   52.0700 H   0  0  0  0  0  0  0  0  0  0  0  0
   34.1622  -15.9409   53.4755 H   0  0  0  0  0  0  0  0  0  0  0  0
   34.3688  -12.5206   52.9588 H   0  0  0  0  0  0  0  0  0  0  0  0
   33.5550  -12.6947   54.5423 H   0  0  0  0  0  0  0  0  0  0  0  0
   32.0460  -15.0129   49.3127 H   0  0  0  0  0  0  0  0  0  0  0  0
  4  2  2  0
  5  2  1  0
  6  2  1  0
  7  3  2  0
  8  3  1  0
  9  3  1  0
 11  2  1  0
 11 10  1  0
 12 10  1  0
 12  1  1  0
 12 13  1  1
 14 12  1  0
 14 15  1  0
 16 14  1  0
 16 17  1  0
 18 16  1  0
 19 18  1  0
 19  3  1  0
 20  1  2  0
 21  1  1  0
  5 22  1  0
  6 23  1  0
  8 24  1  0
  9 25  1  0
 10 26  1  0
 10 27  1  0
 13 28  1  0
 14 29  1  1
 15 30  1  0
 16 31  1  6
 17 32  1  0
 18 33  1  0
 18 34  1  0
 21 35  1  0
M  END
