
     RDKit          3D

 35 34  0  0  0  0  0  0  0  0999 V2000
   31.9487  -13.5259   50.8833 C   0  0  0  0  0  0  0  0  0  0  0  0
   28.6987  -16.5668   50.5215 P   0  0  0  0  0  0  0  0  0  0  0  0
   36.6163  -13.2854   54.7951 P   0  0  0  0  0  0  0  0  0  0  0  0
   27.9690  -16.0965   51.7582 O   0  0  0  0  0  0  0  0  0  0  0  0
   28.9895  -18.2183   50.5675 O   0  0  0  0  0  0  0  0  0  0  0  0
   27.7796  -16.2278   49.1582 O   0  0  0  0  0  0  0  0  0  0  0  0
   36.3276  -12.7329   56.1714 O   0  0  0  0  0  0  0  0  0  0  0  0
   38.0981  -14.0655   54.7840 O   0  0  0  0  0  0  0  0  0  0  0  0
   36.6279  -12.0528   53.6546 O   0  0  0  0  0  0  0  0  0  0  0  0
   30.8938  -15.7356   51.5284 C   0  0  0  0  0  0  0  0  0  0  0  0
   30.1603  -15.7427   50.3262 O   0  0  0  0  0  0  0  0  0  0  0  0
   31.1212  -14.2589   51.9425 C   0  0  2  0  0  0  0  0  0  0  0  0
   29.8369  -13.6716   52.0122 O   0  0  0  0  0  0  0  0  0  0  0  0
   31.7893  -14.1665   53.3604 C   0  0  2  0  0  0  0  0  0  0  0  0
   31.7483  -12.8340   53.8111 O   0  0  0  0  0  0  0  0  0  0  0  0
   33.2524  -14.7036   53.4493 C   0  0  2  0  0  0  0  0  0  0  0  0
   33.2371  -16.0570   53.8316 O   0  0  0  0  0  0  0  0  0  0  0  0
   34.1594  -13.9054   54.4137 C   0  0  0  0  0  0  0  0  0  0  0  0
   35.4637  -14.4304   54.3294 O   0  0  0  0  0  0  0  0  0  0  0  0
   31.8494  -12.2785   50.7443 O   0  0  0  0  0  0  0  0  0  0  0  0
   32.8375  -14.2129   50.0739 O   0  0  0  0  0  0  0  0  0  0  0  0
   28.7436  -18.4990   51.4849 H   0  0  0  0  0  0  0  0  0  0  0  0
   27.1581  -15.5113   49.4438 H   0  0  0  0  0  0  0  0  0  0  0  0
   38.6217  -13.6029   54.0819 H   0  0  0  0  0  0  0  0  0  0  0  0
   37.3763  -11.4639   53.9268 H   0  0  0  0  0  0  0  0  0  0  0  0
   31.8729  -16.2470   51.3951 H   0  0  0  0  0  0  0  0  0  0  0  0
   30.3208  -16.2521   52.3319 H   0  0  0  0  0  0  0  0  0  0  0  0
   29.8462  -12.9360   52.6781 H   0  0  0  0  0  0  0  0  0  0  0  0
   31.1640  -14.7901   54.0466 H   0  0  0  0  0  0  0  0  0  0  0  0
   31.2293  -12.3020   53.1521 H   0  0  0  0  0  0  0  0  0  0  0  0
   33.7254  -14.6412   52.4471 H   0  0  0  0  0  0  0  0  0  0  0  0
   34.1784  -16.3566   53.9338 H   0  0  0  0  0  0  0  0  0  0  0  0
   34.2106  -12.8481   54.0771 H   0  0  0  0  0  0  0  0  0  0  0  0
   33.7118  -13.8989   55.4362 H   0  0  0  0  0  0  0  0  0  0  0  0
   32.5533  -15.0498   49.5789 H   0  0  0  0  0  0  0  0  0  0  0  0
  4  2  2  0
  5  2  1  0
  6  2  1  0
  7  3  2  0
  8  3  1  0
  9  3  1  0
 11  2  1  0
 11 10  1  0
 12 10  1  0
 12  1  1  0
 12 13  1  1
 14 12  1  0
 14 15  1  0
 16 14  1  0
 16 17  1  0
 18 16  1  0
 19 18  1  0
 19  3  1  0
 20  1  2  0
 21  1  1  0
  5 22  1  0
  6 23  1  0
  8 24  1  0
  9 25  1  0
 10 26  1  0
 10 27  1  0
 13 28  1  0
 14 29  1  1
 15 30  1  0
 16 31  1  6
 17 32  1  0
 18 33  1  0
 18 34  1  0
 21 35  1  0
M  END
