
     RDKit          3D

 35 34  0  0  0  0  0  0  0  0999 V2000
  -26.8866    7.1898  214.6869 C   0  0  0  0  0  0  0  0  0  0  0  0
  -29.8830    3.9057  213.6286 P   0  0  0  0  0  0  0  0  0  0  0  0
  -28.3717   13.1532  212.9093 P   0  0  0  0  0  0  0  0  0  0  0  0
  -29.9142    3.5998  212.1490 O   0  0  0  0  0  0  0  0  0  0  0  0
  -31.3238    4.5888  214.1500 O   0  0  0  0  0  0  0  0  0  0  0  0
  -29.6171    2.4968  214.5005 O   0  0  0  0  0  0  0  0  0  0  0  0
  -29.2035   13.1889  211.6483 O   0  0  0  0  0  0  0  0  0  0  0  0
  -29.0744   14.1018  214.0970 O   0  0  0  0  0  0  0  0  0  0  0  0
  -26.8136   13.7016  212.6057 O   0  0  0  0  0  0  0  0  0  0  0  0
  -28.7446    6.1561  213.3080 C   0  0  0  0  0  0  0  0  0  0  0  0
  -28.6052    4.9417  214.0026 O   0  0  0  0  0  0  0  0  0  0  0  0
  -27.3629    6.8518  213.2700 C   0  0  2  0  0  0  0  0  0  0  0  0
  -26.4696    5.9246  212.6849 O   0  0  0  0  0  0  0  0  0  0  0  0
  -27.4208    8.1289  212.3661 C   0  0  2  0  0  0  0  0  0  0  0  0
  -26.1154    8.6025  212.1434 O   0  0  0  0  0  0  0  0  0  0  0  0
  -28.3110    9.2852  212.9143 C   0  0  2  0  0  0  0  0  0  0  0  0
  -29.6189    9.1578  212.4118 O   0  0  0  0  0  0  0  0  0  0  0  0
  -27.7641   10.6904  212.5888 C   0  0  0  0  0  0  0  0  0  0  0  0
  -28.2740   11.5907  213.5415 O   0  0  0  0  0  0  0  0  0  0  0  0
  -25.6599    7.3306  214.9349 O   0  0  0  0  0  0  0  0  0  0  0  0
  -27.7948    7.3814  215.7145 O   0  0  0  0  0  0  0  0  0  0  0  0
  -31.3587    4.4087  215.1234 H   0  0  0  0  0  0  0  0  0  0  0  0
  -29.5012    1.7926  213.8138 H   0  0  0  0  0  0  0  0  0  0  0  0
  -29.9205   13.6388  214.3221 H   0  0  0  0  0  0  0  0  0  0  0  0
  -26.6022   14.2967  213.3686 H   0  0  0  0  0  0  0  0  0  0  0  0
  -29.4861    6.8139  213.8136 H   0  0  0  0  0  0  0  0  0  0  0  0
  -29.0804    5.9659  212.2627 H   0  0  0  0  0  0  0  0  0  0  0  0
  -26.9103    5.4875  211.9108 H   0  0  0  0  0  0  0  0  0  0  0  0
  -27.8531    7.8118  211.3846 H   0  0  0  0  0  0  0  0  0  0  0  0
  -25.8052    8.2482  211.2688 H   0  0  0  0  0  0  0  0  0  0  0  0
  -28.3657    9.2168  214.0206 H   0  0  0  0  0  0  0  0  0  0  0  0
  -30.0094    8.3231  212.7822 H   0  0  0  0  0  0  0  0  0  0  0  0
  -26.6588   10.6910  212.7001 H   0  0  0  0  0  0  0  0  0  0  0  0
  -27.9845   10.9413  211.5235 H   0  0  0  0  0  0  0  0  0  0  0  0
  -27.6666    6.9349  216.6148 H   0  0  0  0  0  0  0  0  0  0  0  0
  4  2  2  0
  5  2  1  0
  6  2  1  0
  7  3  2  0
  8  3  1  0
  9  3  1  0
 11  2  1  0
 11 10  1  0
 12 10  1  0
 12  1  1  0
 12 13  1  6
 14 12  1  0
 14 15  1  0
 16 14  1  0
 16 17  1  0
 18 16  1  0
 19 18  1  0
 19  3  1  0
 20  1  2  0
 21  1  1  0
  5 22  1  0
  6 23  1  0
  8 24  1  0
  9 25  1  0
 10 26  1  0
 10 27  1  0
 13 28  1  0
 14 29  1  6
 15 30  1  0
 16 31  1  1
 17 32  1  0
 18 33  1  0
 18 34  1  0
 21 35  1  0
M  END
