
     RDKit          3D

 35 34  0  0  0  0  0  0  0  0999 V2000
    6.2183   46.5702  101.1447 C   0  0  0  0  0  0  0  0  0  0  0  0
    9.4172   49.6690  102.0741 P   0  0  0  0  0  0  0  0  0  0  0  0
    5.3097   41.8068  105.2069 P   0  0  0  0  0  0  0  0  0  0  0  0
   10.6804   48.9176  101.7232 O   0  0  0  0  0  0  0  0  0  0  0  0
    9.4144   50.1557  103.6796 O   0  0  0  0  0  0  0  0  0  0  0  0
    9.2734   51.0321  101.1056 O   0  0  0  0  0  0  0  0  0  0  0  0
    6.2548   42.4824  106.1727 O   0  0  0  0  0  0  0  0  0  0  0  0
    3.7995   41.6198  105.9051 O   0  0  0  0  0  0  0  0  0  0  0  0
    5.9031   40.3022  104.7563 O   0  0  0  0  0  0  0  0  0  0  0  0
    8.0719   47.5630  102.5552 C   0  0  0  0  0  0  0  0  0  0  0  0
    8.0510   48.7280  101.7684 O   0  0  0  0  0  0  0  0  0  0  0  0
    7.6465   46.3744  101.6603 C   0  0  2  0  0  0  0  0  0  0  0  0
    8.5393   46.3673  100.5636 O   0  0  0  0  0  0  0  0  0  0  0  0
    7.7927   45.0205  102.4332 C   0  0  2  0  0  0  0  0  0  0  0  0
    8.1927   44.0137  101.5355 O   0  0  0  0  0  0  0  0  0  0  0  0
    6.5192   44.5568  103.2058 C   0  0  2  0  0  0  0  0  0  0  0  0
    6.5684   45.0277  104.5311 O   0  0  0  0  0  0  0  0  0  0  0  0
    6.3219   43.0257  103.2024 C   0  0  0  0  0  0  0  0  0  0  0  0
    5.0879   42.7334  103.8123 O   0  0  0  0  0  0  0  0  0  0  0  0
    5.8446   46.0273  100.0718 O   0  0  0  0  0  0  0  0  0  0  0  0
    5.3016   47.3203  101.8611 O   0  0  0  0  0  0  0  0  0  0  0  0
    9.4153   49.3161  104.2050 H   0  0  0  0  0  0  0  0  0  0  0  0
   10.1636   51.1383  100.6847 H   0  0  0  0  0  0  0  0  0  0  0  0
    3.5522   42.5263  106.2181 H   0  0  0  0  0  0  0  0  0  0  0  0
    6.1975   39.8826  105.6037 H   0  0  0  0  0  0  0  0  0  0  0  0
    7.3736   47.6583  103.4161 H   0  0  0  0  0  0  0  0  0  0  0  0
    9.1007   47.3755  102.9398 H   0  0  0  0  0  0  0  0  0  0  0  0
    8.2891   45.6372   99.9400 H   0  0  0  0  0  0  0  0  0  0  0  0
    8.6065   45.1670  103.1862 H   0  0  0  0  0  0  0  0  0  0  0  0
    7.8134   43.1517  101.8512 H   0  0  0  0  0  0  0  0  0  0  0  0
    5.6176   44.9911  102.7264 H   0  0  0  0  0  0  0  0  0  0  0  0
    6.2283   44.3075  105.1241 H   0  0  0  0  0  0  0  0  0  0  0  0
    6.2566   42.6677  102.1529 H   0  0  0  0  0  0  0  0  0  0  0  0
    7.2124   42.5289  103.6571 H   0  0  0  0  0  0  0  0  0  0  0  0
    4.3525   47.4417  101.5285 H   0  0  0  0  0  0  0  0  0  0  0  0
  4  2  2  0
  5  2  1  0
  6  2  1  0
  7  3  2  0
  8  3  1  0
  9  3  1  0
 11 10  1  0
 11  2  1  0
 12 10  1  0
 12  1  1  0
 12 13  1  6
 14 12  1  0
 14 15  1  0
 16 14  1  0
 16 17  1  0
 18 16  1  0
 19  3  1  0
 19 18  1  0
 20  1  2  0
 21  1  1  0
  5 22  1  0
  6 23  1  0
  8 24  1  0
  9 25  1  0
 10 26  1  0
 10 27  1  0
 13 28  1  0
 14 29  1  1
 15 30  1  0
 16 31  1  6
 17 32  1  0
 18 33  1  0
 18 34  1  0
 21 35  1  0
M  END
