
     RDKit          3D

 23 22  0  0  0  0  0  0  0  0999 V2000
   40.9977   33.3342   73.0515 P   0  0  0  0  0  0  0  0  0  0  0  0
   42.1700   32.8378   67.0461 P   0  0  0  0  0  0  0  0  0  0  0  0
   40.1949   33.1253   71.5620 O   0  0  0  0  0  0  0  0  0  0  0  0
   40.8424   32.2201   70.6872 C   0  0  2  0  0  0  0  0  0  0  0  0
   41.3342   32.9880   69.4526 C   0  0  0  0  0  0  0  0  0  0  0  0
   41.7798   32.0551   68.4963 O   0  0  0  0  0  0  0  0  0  0  0  0
   39.8386   31.1920   70.2575 C   0  0  0  0  0  0  0  0  0  0  0  0
   39.9680   30.5999   69.0134 O   0  0  0  0  0  0  0  0  0  0  0  0
   38.9180   30.8295   71.0381 O   0  0  0  0  0  0  0  0  0  0  0  0
   39.8932   32.9950   74.2770 O   0  0  0  0  0  0  0  0  0  0  0  0
   42.3105   32.2971   73.2516 O   0  0  0  0  0  0  0  0  0  0  0  0
   41.4558   34.7697   73.1811 O   0  0  0  0  0  0  0  0  0  0  0  0
   42.7496   31.6692   65.9876 O   0  0  0  0  0  0  0  0  0  0  0  0
   43.3886   33.9654   67.3269 O   0  0  0  0  0  0  0  0  0  0  0  0
   40.9527   33.5130   66.4463 O   0  0  0  0  0  0  0  0  0  0  0  0
   41.7085   31.6801   71.1189 H   0  0  0  0  0  0  0  0  0  0  0  0
   42.1650   33.6573   69.7692 H   0  0  0  0  0  0  0  0  0  0  0  0
   40.4978   33.6008   69.0442 H   0  0  0  0  0  0  0  0  0  0  0  0
   40.2930   29.6447   68.9238 H   0  0  0  0  0  0  0  0  0  0  0  0
   39.1173   33.5809   74.0880 H   0  0  0  0  0  0  0  0  0  0  0  0
   42.1084   31.5113   72.6829 H   0  0  0  0  0  0  0  0  0  0  0  0
   43.0354   32.1743   65.1850 H   0  0  0  0  0  0  0  0  0  0  0  0
   44.1081   33.7355   66.6863 H   0  0  0  0  0  0  0  0  0  0  0  0
  3  1  1  0
  4  3  1  0
  4  5  1  0
  6  5  1  0
  6  2  1  0
  7  4  1  0
  8  7  1  0
  9  7  2  0
 10  1  1  0
 11  1  1  0
 12  1  2  0
 13  2  1  0
 14  2  1  0
 15  2  2  0
  4 16  1  1
  5 17  1  0
  5 18  1  0
  8 19  1  0
 10 20  1  0
 11 21  1  0
 13 22  1  0
 14 23  1  0
M  END
