
     RDKit          3D

 60 62  0  0  0  0  0  0  0  0999 V2000
   12.6980  -15.8518   29.5305 P   0  0  2  0  0  0  0  0  0  0  0  0
   15.2300  -15.7888   30.7521 P   0  0  2  0  0  0  0  0  0  0  0  0
   18.2537  -14.6717   26.5513 C   0  0  0  0  0  0  0  0  0  0  0  0
   17.2276  -13.7204   26.4221 O   0  0  0  0  0  0  0  0  0  0  0  0
   18.1297  -15.4340   27.8880 C   0  0  1  0  0  0  0  0  0  0  0  0
   16.9191  -16.1870   27.8457 O   0  0  0  0  0  0  0  0  0  0  0  0
   19.3731  -16.3484   28.0806 C   0  0  1  0  0  0  0  0  0  0  0  0
   20.5075  -15.5524   28.3258 O   0  0  0  0  0  0  0  0  0  0  0  0
   19.1844  -17.2998   29.2731 C   0  0  2  0  0  0  0  0  0  0  0  0
   20.2283  -18.2413   29.3031 O   0  0  0  0  0  0  0  0  0  0  0  0
   17.8403  -18.0322   29.1357 C   0  0  1  0  0  0  0  0  0  0  0  0
   17.6201  -18.8172   30.2827 O   0  0  0  0  0  0  0  0  0  0  0  0
   16.7215  -16.9973   29.0055 C   0  0  1  0  0  0  0  0  0  0  0  0
   10.3993  -20.8595   30.1153 C   0  0  1  0  0  0  0  0  0  0  0  0
   10.8474  -21.7001   31.2404 N   0  0  0  0  0  0  0  0  0  0  0  0
   12.1220  -15.4751   28.1899 O   0  0  0  0  0  0  0  0  0  0  0  0
   14.7414  -16.7577   31.8069 O   0  0  0  0  0  0  0  0  0  0  0  0
   11.8555  -22.6197   31.0796 C   0  0  0  0  0  0  0  0  0  0  0  0
    9.6791  -19.6080   30.5877 C   0  0  2  0  0  0  0  0  0  0  0  0
   12.4597  -22.7430   29.9741 O   0  0  0  0  0  0  0  0  0  0  0  0
   12.1328  -14.8037   30.7108 O   0  0  0  0  0  0  0  0  0  0  0  0
   15.3426  -14.2300   31.3632 O   0  0  0  0  0  0  0  0  0  0  0  0
    8.3028  -19.8545   30.7517 O   0  0  0  0  0  0  0  0  0  0  0  0
    9.9665  -18.6304   29.4586 C   0  0  2  0  0  0  0  0  0  0  0  0
   12.2170  -23.4125   32.1255 N   0  0  0  0  0  0  0  0  0  0  0  0
   14.3553  -15.7578   29.3167 O   0  0  0  0  0  0  0  0  0  0  0  0
   16.7636  -16.2297   30.1920 O   0  0  0  0  0  0  0  0  0  0  0  0
    8.8955  -18.5978   28.5453 O   0  0  0  0  0  0  0  0  0  0  0  0
   11.6511  -23.2704   33.3554 C   0  0  0  0  0  0  0  0  0  0  0  0
   11.2122  -19.2206   28.7647 C   0  0  2  0  0  0  0  0  0  0  0  0
   12.0104  -24.0203   34.3017 O   0  0  0  0  0  0  0  0  0  0  0  0
   11.5176  -20.4634   29.3626 O   0  0  0  0  0  0  0  0  0  0  0  0
   10.7241  -22.2541   33.5773 C   0  0  0  0  0  0  0  0  0  0  0  0
   12.4441  -18.3070   28.8570 C   0  0  0  0  0  0  0  0  0  0  0  0
   12.2478  -17.4228   29.9393 O   0  0  0  0  0  0  0  0  0  0  0  0
   10.3092  -21.4932   32.4891 C   0  0  0  0  0  0  0  0  0  0  0  0
   18.1825  -15.3882   25.7050 H   0  0  0  0  0  0  0  0  0  0  0  0
   19.2405  -14.1614   26.4778 H   0  0  0  0  0  0  0  0  0  0  0  0
   16.4100  -14.2181   26.1583 H   0  0  0  0  0  0  0  0  0  0  0  0
   18.0863  -14.6878   28.7140 H   0  0  0  0  0  0  0  0  0  0  0  0
   19.5131  -16.9724   27.1633 H   0  0  0  0  0  0  0  0  0  0  0  0
   21.3042  -16.1383   28.2393 H   0  0  0  0  0  0  0  0  0  0  0  0
   19.2020  -16.6981   30.2138 H   0  0  0  0  0  0  0  0  0  0  0  0
   20.4149  -18.4981   28.3622 H   0  0  0  0  0  0  0  0  0  0  0  0
   17.8615  -18.6785   28.2262 H   0  0  0  0  0  0  0  0  0  0  0  0
   18.0171  -18.3235   31.0472 H   0  0  0  0  0  0  0  0  0  0  0  0
   15.7659  -17.5548   28.8718 H   0  0  0  0  0  0  0  0  0  0  0  0
    9.7209  -21.4198   29.4317 H   0  0  0  0  0  0  0  0  0  0  0  0
   10.1134  -19.2020   31.5297 H   0  0  0  0  0  0  0  0  0  0  0  0
   12.2961  -15.2747   31.5667 H   0  0  0  0  0  0  0  0  0  0  0  0
   16.0052  -14.2938   32.0965 H   0  0  0  0  0  0  0  0  0  0  0  0
    8.2267  -20.7599   31.1515 H   0  0  0  0  0  0  0  0  0  0  0  0
   10.1569  -17.6096   29.8653 H   0  0  0  0  0  0  0  0  0  0  0  0
   12.9564  -24.1388   31.9848 H   0  0  0  0  0  0  0  0  0  0  0  0
    8.2360  -17.9454   28.8994 H   0  0  0  0  0  0  0  0  0  0  0  0
   11.0025  -19.3963   27.6855 H   0  0  0  0  0  0  0  0  0  0  0  0
   10.2947  -22.0924   34.5583 H   0  0  0  0  0  0  0  0  0  0  0  0
   13.3438  -18.9260   29.0606 H   0  0  0  0  0  0  0  0  0  0  0  0
   12.5889  -17.8185   27.8650 H   0  0  0  0  0  0  0  0  0  0  0  0
    9.5646  -20.7236   32.6515 H   0  0  0  0  0  0  0  0  0  0  0  0
  4  3  1  0
  5  3  1  0
  6  5  1  0
  7  5  1  0
  7  8  1  0
  9  7  1  0
  9 10  1  0
 11  9  1  0
 11 12  1  0
 13  6  1  0
 13 11  1  0
 14 15  1  0
 16  1  2  0
 17  2  2  0
 18 15  1  0
 19 14  1  0
 20 18  2  0
  1 21  1  1
  2 22  1  1
 19 23  1  0
 24 19  1  0
 25 18  1  0
 26  1  1  0
 26  2  1  0
 13 27  1  0
 27  2  1  0
 24 28  1  0
 29 25  1  0
 30 24  1  0
 31 29  2  0
 32 14  1  0
 32 30  1  0
 33 29  1  0
 30 34  1  0
 35 34  1  0
 35  1  1  0
 36 15  1  0
 36 33  2  0
  3 37  1  0
  3 38  1  0
  4 39  1  0
  5 40  1  1
  7 41  1  6
  8 42  1  0
  9 43  1  1
 10 44  1  0
 11 45  1  6
 12 46  1  0
 13 47  1  6
 14 48  1  6
 19 49  1  1
 21 50  1  0
 22 51  1  0
 23 52  1  0
 24 53  1  1
 25 54  1  0
 28 55  1  0
 30 56  1  6
 33 57  1  0
 34 58  1  0
 34 59  1  0
 36 60  1  0
M  END
