
     RDKit          3D

 32 33  0  0  0  0  0  0  0  0999 V2000
   15.6005  -34.4708   24.9613 P   0  0  0  0  0  0  0  0  0  0  0  0
   16.9480  -32.3814   26.4568 P   0  0  0  0  0  0  0  0  0  0  0  0
   15.3042  -32.9218   25.8564 C   0  0  0  0  0  0  0  0  0  0  0  0
   14.4783  -33.2518   26.9395 O   0  0  0  0  0  0  0  0  0  0  0  0
   14.5085  -31.9212   24.9700 C   0  0  2  0  0  0  0  0  0  0  0  0
   16.9275  -31.0721   27.2079 O   0  0  0  0  0  0  0  0  0  0  0  0
   18.0149  -32.2988   25.1667 O   0  0  0  0  0  0  0  0  0  0  0  0
   17.4494  -33.6015   27.4992 O   0  0  0  0  0  0  0  0  0  0  0  0
   15.5456  -35.6088   25.9539 O   0  0  0  0  0  0  0  0  0  0  0  0
   17.1053  -34.4420   24.2144 O   0  0  0  0  0  0  0  0  0  0  0  0
   14.4248  -34.6535   23.7813 O   0  0  0  0  0  0  0  0  0  0  0  0
   14.7661  -31.9652   23.4470 C   0  0  0  0  0  0  0  0  0  0  0  0
   14.5007  -30.5424   22.9362 C   0  0  0  0  0  0  0  0  0  0  0  0
   14.6626  -29.7163   24.1590 C   0  0  0  0  0  0  0  0  0  0  0  0
   14.9431  -28.5158   26.6108 N   0  0  0  0  0  0  0  0  0  0  0  0
   14.7849  -28.3302   24.2246 C   0  0  0  0  0  0  0  0  0  0  0  0
   14.6899  -30.4808   25.2979 C   0  0  0  0  0  0  0  0  0  0  0  0
   14.7990  -29.8664   26.5503 C   0  0  0  0  0  0  0  0  0  0  0  0
   14.9426  -27.7431   25.4871 C   0  0  0  0  0  0  0  0  0  0  0  0
   14.4980  -34.2240   27.1267 H   0  0  0  0  0  0  0  0  0  0  0  0
   13.4247  -32.1376   25.1130 H   0  0  0  0  0  0  0  0  0  0  0  0
   18.8124  -32.8041   25.4653 H   0  0  0  0  0  0  0  0  0  0  0  0
   17.8766  -33.1387   28.2634 H   0  0  0  0  0  0  0  0  0  0  0  0
   16.9265  -34.1267   23.2929 H   0  0  0  0  0  0  0  0  0  0  0  0
   14.0879  -35.5773   23.8987 H   0  0  0  0  0  0  0  0  0  0  0  0
   14.1051  -32.7009   22.9396 H   0  0  0  0  0  0  0  0  0  0  0  0
   15.8262  -32.2195   23.2390 H   0  0  0  0  0  0  0  0  0  0  0  0
   13.4612  -30.4481   22.5547 H   0  0  0  0  0  0  0  0  0  0  0  0
   15.2330  -30.2506   22.1527 H   0  0  0  0  0  0  0  0  0  0  0  0
   14.7711  -27.7248   23.3275 H   0  0  0  0  0  0  0  0  0  0  0  0
   14.7680  -30.4298   27.4670 H   0  0  0  0  0  0  0  0  0  0  0  0
   15.0543  -26.6707   25.5736 H   0  0  0  0  0  0  0  0  0  0  0  0
  3  2  1  0
  3  1  1  0
  3  4  1  0
  5  3  1  0
  6  2  2  0
  7  2  1  0
  8  2  1  0
  9  1  2  0
 10  1  1  0
 11  1  1  0
  5 12  1  0
 13 12  1  0
 14 13  1  0
 16 14  2  0
 17  5  1  0
 17 14  1  0
 18 17  2  0
 18 15  1  0
 19 16  1  0
 19 15  2  0
  4 20  1  0
  5 21  1  6
  7 22  1  0
  8 23  1  0
 10 24  1  0
 11 25  1  0
 12 26  1  0
 12 27  1  0
 13 28  1  0
 13 29  1  0
 16 30  1  0
 18 31  1  0
 19 32  1  0
M  END
