
     RDKit          3D

 20 20  0  0  0  0  0  0  0  0999 V2000
   19.5782   41.9702   18.6680 C   0  0  0  0  0  0  0  0  0  0  0  0
   18.6037   43.0828   18.8904 C   0  0  2  0  0  0  0  0  0  0  0  0
   17.1881   42.5976   18.5551 C   0  0  0  0  0  0  0  0  0  0  0  0
   16.9994   40.7490   16.9112 C   0  0  0  0  0  0  0  0  0  0  0  0
   16.0475   41.7900   15.3690 C   0  0  0  0  0  0  0  0  0  0  0  0
   17.0967   42.0647   17.1977 N   0  0  0  0  0  0  0  0  0  0  0  0
   16.3583   40.5347   15.7486 N   0  0  0  0  0  0  0  0  0  0  0  0
   20.4551   42.0463   17.7674 O   0  0  0  0  0  0  0  0  0  0  0  0
   19.4663   40.8249   19.4353 O   0  0  0  0  0  0  0  0  0  0  0  0
   17.3835   39.8282   17.6807 O   0  0  0  0  0  0  0  0  0  0  0  0
   15.3825   42.0724   14.3390 O   0  0  0  0  0  0  0  0  0  0  0  0
   16.4729   42.6844   16.2338 O   0  0  0  0  0  0  0  0  0  0  0  0
   18.9625   44.2638   18.1012 N   0  0  0  0  0  0  0  0  0  0  0  0
   18.6297   43.3529   19.9705 H   0  0  0  0  0  0  0  0  0  0  0  0
   16.4670   43.4360   18.6692 H   0  0  0  0  0  0  0  0  0  0  0  0
   16.8975   41.8088   19.2843 H   0  0  0  0  0  0  0  0  0  0  0  0
   16.1130   39.6292   15.2896 H   0  0  0  0  0  0  0  0  0  0  0  0
   18.7178   40.7226   20.1103 H   0  0  0  0  0  0  0  0  0  0  0  0
   18.6754   44.0953   17.1091 H   0  0  0  0  0  0  0  0  0  0  0  0
   20.0052   44.3462   18.0864 H   0  0  0  0  0  0  0  0  0  0  0  0
  2  1  1  0
  3  2  1  0
  6  4  1  0
  6  3  1  0
  7  4  1  0
  7  5  1  0
  8  1  2  0
  9  1  1  0
 10  4  2  0
 11  5  2  0
 12  5  1  0
 12  6  1  0
  2 13  1  0
  2 14  1  1
  3 15  1  0
  3 16  1  0
  7 17  1  0
  9 18  1  0
 13 19  1  0
 13 20  1  0
M  END
