
     RDKit          3D

 25 24  0  0  0  0  0  0  0  0999 V2000
    1.4574   -5.6676   12.4126 P   0  0  0  0  0  0  0  0  0  0  0  0
    2.9672   -2.9515   14.9308 O   0  0  0  0  0  0  0  0  0  0  0  0
    1.5901   -2.6864   14.9107 C   0  0  0  0  0  0  0  0  0  0  0  0
    0.8216   -3.8898   14.4326 C   0  0  0  0  0  0  0  0  0  0  0  0
    1.3333   -4.9996   14.4919 O   0  0  0  0  0  0  0  0  0  0  0  0
   -0.5746   -3.7165   13.8625 C   0  0  1  0  0  0  0  0  0  0  0  0
   -0.5619   -3.3857   12.3446 C   0  0  1  0  0  0  0  0  0  0  0  0
    0.8517   -3.2384   11.7356 C   0  0  0  0  0  0  0  0  0  0  0  0
    1.8000   -4.0054   12.4407 O   0  0  0  0  0  0  0  0  0  0  0  0
    0.0830   -5.9708   12.9583 O   0  0  0  0  0  0  0  0  0  0  0  0
    2.6196   -6.3965   13.3863 O   0  0  0  0  0  0  0  0  0  0  0  0
    1.5940   -6.2555   10.8429 O   0  0  0  0  0  0  0  0  0  0  0  0
   -1.4299   -4.8121   14.1310 O   0  0  0  0  0  0  0  0  0  0  0  0
   -1.2595   -4.3799   11.6428 O   0  0  0  0  0  0  0  0  0  0  0  0
    3.1450   -3.4698   15.7590 H   0  0  0  0  0  0  0  0  0  0  0  0
    1.4134   -1.8374   14.2196 H   0  0  0  0  0  0  0  0  0  0  0  0
    1.2338   -2.3879   15.9225 H   0  0  0  0  0  0  0  0  0  0  0  0
   -1.0173   -2.8383   14.3807 H   0  0  0  0  0  0  0  0  0  0  0  0
   -1.0896   -2.4160   12.1861 H   0  0  0  0  0  0  0  0  0  0  0  0
    1.1575   -2.1748   11.8346 H   0  0  0  0  0  0  0  0  0  0  0  0
    0.8307   -3.4401   10.6392 H   0  0  0  0  0  0  0  0  0  0  0  0
    2.4170   -7.3651   13.3427 H   0  0  0  0  0  0  0  0  0  0  0  0
    0.6658   -6.4646   10.5679 H   0  0  0  0  0  0  0  0  0  0  0  0
   -0.9287   -5.6644   14.1464 H   0  0  0  0  0  0  0  0  0  0  0  0
   -2.1096   -3.9730   11.3294 H   0  0  0  0  0  0  0  0  0  0  0  0
  3  2  1  0
  4  3  1  0
  5  4  2  0
  6  4  1  0
  7  6  1  0
  8  7  1  0
  9  1  1  0
  9  8  1  0
 10  1  2  0
 11  1  1  0
 12  1  1  0
  6 13  1  0
  7 14  1  0
  2 15  1  0
  3 16  1  0
  3 17  1  0
  6 18  1  1
  7 19  1  1
  8 20  1  0
  8 21  1  0
 11 22  1  0
 12 23  1  0
 13 24  1  0
 14 25  1  0
M  END
