
     RDKit          3D

 25 24  0  0  0  0  0  0  0  0999 V2000
   17.7277    4.6219   27.9702 P   0  0  0  0  0  0  0  0  0  0  0  0
   11.6650    2.9027   25.3224 O   0  0  0  0  0  0  0  0  0  0  0  0
   12.9055    2.4246   24.8742 C   0  0  0  0  0  0  0  0  0  0  0  0
   13.9413    2.5052   25.9659 C   0  0  0  0  0  0  0  0  0  0  0  0
   14.9067    1.7529   25.9371 O   0  0  0  0  0  0  0  0  0  0  0  0
   13.7321    3.4666   27.1322 C   0  0  1  0  0  0  0  0  0  0  0  0
   14.2567    2.8835   28.4730 C   0  0  1  0  0  0  0  0  0  0  0  0
   15.6220    3.4643   28.9155 C   0  0  0  0  0  0  0  0  0  0  0  0
   16.5708    3.3860   27.8772 O   0  0  0  0  0  0  0  0  0  0  0  0
   18.5390    4.7401   26.7027 O   0  0  0  0  0  0  0  0  0  0  0  0
   18.7455    4.2431   29.2562 O   0  0  0  0  0  0  0  0  0  0  0  0
   16.9567    6.0799   28.2812 O   0  0  0  0  0  0  0  0  0  0  0  0
   14.2527    4.7645   26.9056 O   0  0  0  0  0  0  0  0  0  0  0  0
   13.2955    3.0907   29.4784 O   0  0  0  0  0  0  0  0  0  0  0  0
   11.8576    3.5527   26.0480 H   0  0  0  0  0  0  0  0  0  0  0  0
   13.2338    3.0499   24.0186 H   0  0  0  0  0  0  0  0  0  0  0  0
   12.8075    1.3751   24.5156 H   0  0  0  0  0  0  0  0  0  0  0  0
   12.6329    3.5877   27.2457 H   0  0  0  0  0  0  0  0  0  0  0  0
   14.3836    1.7836   28.3327 H   0  0  0  0  0  0  0  0  0  0  0  0
   16.0046    2.8413   29.7517 H   0  0  0  0  0  0  0  0  0  0  0  0
   15.5022    4.4865   29.3442 H   0  0  0  0  0  0  0  0  0  0  0  0
   18.4288    3.3632   29.5818 H   0  0  0  0  0  0  0  0  0  0  0  0
   17.3654    6.7209   27.6464 H   0  0  0  0  0  0  0  0  0  0  0  0
   15.2413    4.7509   26.8957 H   0  0  0  0  0  0  0  0  0  0  0  0
   12.5288    2.4928   29.2758 H   0  0  0  0  0  0  0  0  0  0  0  0
  3  2  1  0
  4  3  1  0
  5  4  2  0
  6  4  1  0
  7  6  1  0
  8  7  1  0
  9  8  1  0
  9  1  1  0
 10  1  2  0
 11  1  1  0
 12  1  1  0
  6 13  1  0
  7 14  1  0
  2 15  1  0
  3 16  1  0
  3 17  1  0
  6 18  1  1
  7 19  1  6
  8 20  1  0
  8 21  1  0
 11 22  1  0
 12 23  1  0
 13 24  1  0
 14 25  1  0
M  END
