
     RDKit          3D

 25 24  0  0  0  0  0  0  0  0999 V2000
   17.7111    3.8851   27.9359 P   0  0  0  0  0  0  0  0  0  0  0  0
   13.5892    5.3290   24.5585 O   0  0  0  0  0  0  0  0  0  0  0  0
   14.7665    4.7974   25.1059 C   0  0  0  0  0  0  0  0  0  0  0  0
   15.1020    5.4643   26.4152 C   0  0  0  0  0  0  0  0  0  0  0  0
   16.2644    5.7596   26.6603 O   0  0  0  0  0  0  0  0  0  0  0  0
   14.0020    5.6895   27.4483 C   0  0  1  0  0  0  0  0  0  0  0  0
   14.4450    5.2684   28.8765 C   0  0  1  0  0  0  0  0  0  0  0  0
   15.3214    3.9925   28.9082 C   0  0  0  0  0  0  0  0  0  0  0  0
   16.0327    3.8316   27.7029 O   0  0  0  0  0  0  0  0  0  0  0  0
   18.4432    4.3590   26.7037 O   0  0  0  0  0  0  0  0  0  0  0  0
   18.2023    2.3204   28.3149 O   0  0  0  0  0  0  0  0  0  0  0  0
   18.0594    4.9049   29.2227 O   0  0  0  0  0  0  0  0  0  0  0  0
   13.4758    7.0049   27.4480 O   0  0  0  0  0  0  0  0  0  0  0  0
   15.1261    6.3369   29.4865 O   0  0  0  0  0  0  0  0  0  0  0  0
   12.8416    5.0041   25.1256 H   0  0  0  0  0  0  0  0  0  0  0  0
   15.5958    4.9711   24.3897 H   0  0  0  0  0  0  0  0  0  0  0  0
   14.6622    3.6985   25.2513 H   0  0  0  0  0  0  0  0  0  0  0  0
   13.1625    5.0185   27.1643 H   0  0  0  0  0  0  0  0  0  0  0  0
   13.5204    5.0615   29.4664 H   0  0  0  0  0  0  0  0  0  0  0  0
   14.6467    3.1156   29.0058 H   0  0  0  0  0  0  0  0  0  0  0  0
   15.9630    3.9700   29.8197 H   0  0  0  0  0  0  0  0  0  0  0  0
   18.1355    1.8186   27.4639 H   0  0  0  0  0  0  0  0  0  0  0  0
   17.1745    5.1803   29.5719 H   0  0  0  0  0  0  0  0  0  0  0  0
   13.4168    7.3611   28.3685 H   0  0  0  0  0  0  0  0  0  0  0  0
   15.3865    6.9666   28.7640 H   0  0  0  0  0  0  0  0  0  0  0  0
  3  2  1  0
  4  3  1  0
  5  4  2  0
  6  4  1  0
  7  6  1  0
  8  7  1  0
  9  8  1  0
  9  1  1  0
 10  1  2  0
 11  1  1  0
 12  1  1  0
  6 13  1  0
  7 14  1  0
  2 15  1  0
  3 16  1  0
  3 17  1  0
  6 18  1  6
  7 19  1  1
  8 20  1  0
  8 21  1  0
 11 22  1  0
 12 23  1  0
 13 24  1  0
 14 25  1  0
M  END
