
     RDKit          3D

 25 24  0  0  0  0  0  0  0  0999 V2000
   17.9132    4.0725   26.7204 P   0  0  0  0  0  0  0  0  0  0  0  0
   14.2411    2.7929   24.7262 O   0  0  0  0  0  0  0  0  0  0  0  0
   14.1616    3.1449   26.0819 C   0  0  0  0  0  0  0  0  0  0  0  0
   15.0171    4.3498   26.3777 C   0  0  0  0  0  0  0  0  0  0  0  0
   15.8877    4.6803   25.5831 O   0  0  0  0  0  0  0  0  0  0  0  0
   14.8396    5.0925   27.6988 C   0  0  1  0  0  0  0  0  0  0  0  0
   15.1688    4.1954   28.9236 C   0  0  1  0  0  0  0  0  0  0  0  0
   16.5781    3.5567   28.8696 C   0  0  0  0  0  0  0  0  0  0  0  0
   16.8639    3.0583   27.5833 O   0  0  0  0  0  0  0  0  0  0  0  0
   17.4640    5.5134   26.7471 O   0  0  0  0  0  0  0  0  0  0  0  0
   17.9317    3.5185   25.1311 O   0  0  0  0  0  0  0  0  0  0  0  0
   19.4565    3.9536   27.3693 O   0  0  0  0  0  0  0  0  0  0  0  0
   15.5438    6.3199   27.7655 O   0  0  0  0  0  0  0  0  0  0  0  0
   15.0246    4.9472   30.1033 O   0  0  0  0  0  0  0  0  0  0  0  0
   13.6830    3.4478   24.2306 H   0  0  0  0  0  0  0  0  0  0  0  0
   14.5224    2.2886   26.6882 H   0  0  0  0  0  0  0  0  0  0  0  0
   13.1042    3.3464   26.3665 H   0  0  0  0  0  0  0  0  0  0  0  0
   13.7603    5.3485   27.7723 H   0  0  0  0  0  0  0  0  0  0  0  0
   14.4201    3.3680   28.9432 H   0  0  0  0  0  0  0  0  0  0  0  0
   16.5878    2.6889   29.5628 H   0  0  0  0  0  0  0  0  0  0  0  0
   17.3501    4.2561   29.2667 H   0  0  0  0  0  0  0  0  0  0  0  0
   17.0018    3.6320   24.8103 H   0  0  0  0  0  0  0  0  0  0  0  0
   19.3343    3.4624   28.2205 H   0  0  0  0  0  0  0  0  0  0  0  0
   16.3683    6.2832   27.2210 H   0  0  0  0  0  0  0  0  0  0  0  0
   14.8624    4.3027   30.8412 H   0  0  0  0  0  0  0  0  0  0  0  0
  3  2  1  0
  4  3  1  0
  5  4  2  0
  6  4  1  0
  7  6  1  0
  8  7  1  0
  9  8  1  0
  9  1  1  0
 10  1  2  0
 11  1  1  0
 12  1  1  0
  6 13  1  0
  7 14  1  0
  2 15  1  0
  3 16  1  0
  3 17  1  0
  6 18  1  1
  7 19  1  1
  8 20  1  0
  8 21  1  0
 11 22  1  0
 12 23  1  0
 13 24  1  0
 14 25  1  0
M  END
