
     RDKit          3D

 32 31  0  0  0  0  0  0  0  0999 V2000
   25.1808    7.3860   65.4960 N   0  0  0  0  0  0  0  0  0  0  0  0
   23.3335    5.5353   66.1823 C   0  0  0  0  0  0  0  0  0  0  0  0
   22.6509    5.1251   67.1542 O   0  0  0  0  0  0  0  0  0  0  0  0
   25.7200    8.5259   67.4586 O   0  0  0  0  0  0  0  0  0  0  0  0
   25.8162    9.7672   64.1802 O   0  0  0  0  0  0  0  0  0  0  0  0
   24.5413    4.9202   65.8923 O   0  0  0  0  0  0  0  0  0  0  0  0
   27.9645    9.1483   65.1269 C   0  0  0  0  0  0  0  0  0  0  0  0
   28.6935   10.3652   64.5076 C   0  0  0  0  0  0  0  0  0  0  0  0
   28.7924   11.4151   65.4369 O   0  0  0  0  0  0  0  0  0  0  0  0
   28.0637    7.9617   64.1399 C   0  0  0  0  0  0  0  0  0  0  0  0
   28.6736    8.7587   66.4429 C   0  0  0  0  0  0  0  0  0  0  0  0
   26.4810    9.5349   65.4036 C   0  0  2  0  0  0  0  0  0  0  0  0
   25.7535    8.4781   66.1952 C   0  0  0  0  0  0  0  0  0  0  0  0
   23.9648    7.4835   64.6978 C   0  0  0  0  0  0  0  0  0  0  0  0
   22.8375    6.7006   65.3736 C   0  0  0  0  0  0  0  0  0  0  0  0
   25.5533    6.4517   65.7625 H   0  0  0  0  0  0  0  0  0  0  0  0
   24.8425    9.6982   64.3634 H   0  0  0  0  0  0  0  0  0  0  0  0
   25.4199    5.3372   66.1758 H   0  0  0  0  0  0  0  0  0  0  0  0
   28.1373   10.7364   63.6201 H   0  0  0  0  0  0  0  0  0  0  0  0
   29.7056   10.0709   64.1408 H   0  0  0  0  0  0  0  0  0  0  0  0
   29.0870   12.2204   64.9368 H   0  0  0  0  0  0  0  0  0  0  0  0
   27.2055    7.9507   63.4351 H   0  0  0  0  0  0  0  0  0  0  0  0
   28.0539    6.9962   64.6907 H   0  0  0  0  0  0  0  0  0  0  0  0
   29.0050    8.0114   63.5520 H   0  0  0  0  0  0  0  0  0  0  0  0
   28.8490    7.6628   66.4941 H   0  0  0  0  0  0  0  0  0  0  0  0
   28.0589    9.0546   67.3205 H   0  0  0  0  0  0  0  0  0  0  0  0
   29.6531    9.2726   66.5406 H   0  0  0  0  0  0  0  0  0  0  0  0
   26.4614   10.4727   66.0077 H   0  0  0  0  0  0  0  0  0  0  0  0
   24.1572    7.0889   63.6770 H   0  0  0  0  0  0  0  0  0  0  0  0
   23.6414    8.5429   64.6072 H   0  0  0  0  0  0  0  0  0  0  0  0
   22.2599    7.3808   66.0364 H   0  0  0  0  0  0  0  0  0  0  0  0
   22.1480    6.3228   64.5880 H   0  0  0  0  0  0  0  0  0  0  0  0
  3  2  2  0
  6  2  1  0
  8  7  1  0
  9  8  1  0
  7 10  1  0
 11  7  1  0
 12  7  1  0
 12  5  1  0
 13 12  1  0
 13  4  2  0
 13  1  1  0
 14  1  1  0
 15  2  1  0
 15 14  1  0
  1 16  1  0
  5 17  1  0
  6 18  1  0
  8 19  1  0
  8 20  1  0
  9 21  1  0
 10 22  1  0
 10 23  1  0
 10 24  1  0
 11 25  1  0
 11 26  1  0
 11 27  1  0
 12 28  1  1
 14 29  1  0
 14 30  1  0
 15 31  1  0
 15 32  1  0
M  END
