
     RDKit          3D

 50 51  0  0  0  0  0  0  0  0999 V2000
    2.5513    4.1657   11.5860 C   0  0  1  0  0  0  0  0  0  0  0  0
    1.7767    5.2526   10.9747 N   0  0  0  0  0  0  0  0  0  0  0  0
    3.8304    4.1607   11.0066 O   0  0  0  0  0  0  0  0  0  0  0  0
    2.7077    4.3054   13.1402 C   0  0  2  0  0  0  0  0  0  0  0  0
    2.3365    4.9836    8.6495 N   0  0  0  0  0  0  0  0  0  0  0  0
    2.6570    3.0280   13.7322 O   0  0  0  0  0  0  0  0  0  0  0  0
    1.6698    5.2239   13.8310 C   0  0  1  0  0  0  0  0  0  0  0  0
    2.1223    5.5595   15.1189 O   0  0  0  0  0  0  0  0  0  0  0  0
    1.4476    6.5135   13.0124 C   0  0  2  0  0  0  0  0  0  0  0  0
    0.6246    7.4207   13.7007 O   0  0  0  0  0  0  0  0  0  0  0  0
    0.8253    6.0933   11.6775 C   0  0  1  0  0  0  0  0  0  0  0  0
    0.4929    7.2292   10.6817 C   0  0  0  0  0  0  0  0  0  0  0  0
    0.9239    6.7346    9.4133 O   0  0  0  0  0  0  0  0  0  0  0  0
    1.7284    5.6295    9.6061 C   0  0  0  0  0  0  0  0  0  0  0  0
    2.1865    5.2567    7.2152 C   0  0  0  0  0  0  0  0  0  0  0  0
    3.4289    5.9456    6.6286 C   0  0  0  0  0  0  0  0  0  0  0  0
    3.3319    6.0151    5.0947 C   0  0  0  0  0  0  0  0  0  0  0  0
    4.2966    7.0394    4.4755 C   0  0  0  0  0  0  0  0  0  0  0  0
    4.1297    7.0384    2.9450 C   0  0  0  0  0  0  0  0  0  0  0  0
    4.9039    8.1607    2.2406 C   0  0  0  0  0  0  0  0  0  0  0  0
    6.4213    7.9401    2.2906 C   0  0  0  0  0  0  0  0  0  0  0  0
    6.8662    7.4850    3.6778 C   0  0  0  0  0  0  0  0  0  0  0  0
    2.0258    3.2118   11.3471 H   0  0  0  0  0  0  0  0  0  0  0  0
    3.7010    4.2226   10.0242 H   0  0  0  0  0  0  0  0  0  0  0  0
    3.7063    4.7618   13.3460 H   0  0  0  0  0  0  0  0  0  0  0  0
    3.5205    2.5820   13.5290 H   0  0  0  0  0  0  0  0  0  0  0  0
    0.6989    4.6780   13.9145 H   0  0  0  0  0  0  0  0  0  0  0  0
    3.1143    5.5250   15.0952 H   0  0  0  0  0  0  0  0  0  0  0  0
    2.4265    7.0102   12.8282 H   0  0  0  0  0  0  0  0  0  0  0  0
    0.7814    8.3221   13.3141 H   0  0  0  0  0  0  0  0  0  0  0  0
   -0.1051    5.5063   11.8540 H   0  0  0  0  0  0  0  0  0  0  0  0
    1.0617    8.1525   10.9252 H   0  0  0  0  0  0  0  0  0  0  0  0
   -0.5958    7.4486   10.6616 H   0  0  0  0  0  0  0  0  0  0  0  0
    2.0383    4.2825    6.7020 H   0  0  0  0  0  0  0  0  0  0  0  0
    1.2810    5.8734    7.0215 H   0  0  0  0  0  0  0  0  0  0  0  0
    4.3366    5.3697    6.9129 H   0  0  0  0  0  0  0  0  0  0  0  0
    3.5125    6.9712    7.0492 H   0  0  0  0  0  0  0  0  0  0  0  0
    3.5555    5.0101    4.6725 H   0  0  0  0  0  0  0  0  0  0  0  0
    2.2883    6.2829    4.8166 H   0  0  0  0  0  0  0  0  0  0  0  0
    5.3416    6.7715    4.7421 H   0  0  0  0  0  0  0  0  0  0  0  0
    4.0683    8.0503    4.8784 H   0  0  0  0  0  0  0  0  0  0  0  0
    3.0529    7.1751    2.7008 H   0  0  0  0  0  0  0  0  0  0  0  0
    4.4394    6.0527    2.5329 H   0  0  0  0  0  0  0  0  0  0  0  0
    4.6489    9.1426    2.6962 H   0  0  0  0  0  0  0  0  0  0  0  0
    4.5742    8.1847    1.1785 H   0  0  0  0  0  0  0  0  0  0  0  0
    6.7139    7.1682    1.5469 H   0  0  0  0  0  0  0  0  0  0  0  0
    6.9520    8.8857    2.0447 H   0  0  0  0  0  0  0  0  0  0  0  0
    6.6306    8.2630    4.4349 H   0  0  0  0  0  0  0  0  0  0  0  0
    6.3564    6.5373    3.9537 H   0  0  0  0  0  0  0  0  0  0  0  0
    7.9630    7.3116    3.6780 H   0  0  0  0  0  0  0  0  0  0  0  0
  2  1  1  0
  1  3  1  0
  4  1  1  0
  4  6  1  0
  7  4  1  0
  7  8  1  0
  9  7  1  0
  9 10  1  0
 11  2  1  0
 11  9  1  0
 11 12  1  0
 13 12  1  0
 14  5  2  3
 14  2  1  0
 14 13  1  0
 15  5  1  0
 16 15  1  0
 17 16  1  0
 18 17  1  0
 19 18  1  0
 20 19  1  0
 21 20  1  0
 22 21  1  0
  1 23  1  1
  3 24  1  0
  4 25  1  6
  6 26  1  0
  7 27  1  1
  8 28  1  0
  9 29  1  6
 10 30  1  0
 11 31  1  1
 12 32  1  0
 12 33  1  0
 15 34  1  0
 15 35  1  0
 16 36  1  0
 16 37  1  0
 17 38  1  0
 17 39  1  0
 18 40  1  0
 18 41  1  0
 19 42  1  0
 19 43  1  0
 20 44  1  0
 20 45  1  0
 21 46  1  0
 21 47  1  0
 22 48  1  0
 22 49  1  0
 22 50  1  0
M  END
