
     RDKit          3D

 50 51  0  0  0  0  0  0  0  0999 V2000
   38.2450   22.4158   13.8784 C   0  0  1  0  0  0  0  0  0  0  0  0
   38.3133   23.0799   12.5799 N   0  0  0  0  0  0  0  0  0  0  0  0
   36.9162   22.4713   14.3442 O   0  0  0  0  0  0  0  0  0  0  0  0
   38.7016   20.9341   13.8050 C   0  0  2  0  0  0  0  0  0  0  0  0
   37.0893   25.0178   13.0928 N   0  0  0  0  0  0  0  0  0  0  0  0
   39.4369   20.6595   14.9709 O   0  0  0  0  0  0  0  0  0  0  0  0
   39.5384   20.5521   12.5529 C   0  0  1  0  0  0  0  0  0  0  0  0
   39.5677   19.1538   12.4544 O   0  0  0  0  0  0  0  0  0  0  0  0
   38.9174   21.1497   11.2695 C   0  0  2  0  0  0  0  0  0  0  0  0
   39.5626   20.7008   10.1033 O   0  0  0  0  0  0  0  0  0  0  0  0
   39.0463   22.6562   11.4061 C   0  0  1  0  0  0  0  0  0  0  0  0
   38.4599   23.4911   10.2448 C   0  0  0  0  0  0  0  0  0  0  0  0
   37.7668   24.5519   10.8880 O   0  0  0  0  0  0  0  0  0  0  0  0
   37.6611   24.2623   12.2285 C   0  0  0  0  0  0  0  0  0  0  0  0
   36.4343   26.2445   12.7333 C   0  0  0  0  0  0  0  0  0  0  0  0
   35.0590   25.8567   12.2348 C   0  0  0  0  0  0  0  0  0  0  0  0
   34.0356   26.5936   13.0581 C   0  0  0  0  0  0  0  0  0  0  0  0
   33.7346   27.9144   12.3900 C   0  0  0  0  0  0  0  0  0  0  0  0
   32.6008   27.7041   11.3943 C   0  0  0  0  0  0  0  0  0  0  0  0
   31.7654   28.9685   11.3554 C   0  0  0  0  0  0  0  0  0  0  0  0
   30.5139   28.7754   10.5108 C   0  0  0  0  0  0  0  0  0  0  0  0
   29.9912   27.3413   10.5858 C   0  0  0  0  0  0  0  0  0  0  0  0
   38.9059   22.9859   14.5728 H   0  0  0  0  0  0  0  0  0  0  0  0
   36.3379   22.5719   13.5434 H   0  0  0  0  0  0  0  0  0  0  0  0
   37.7825   20.2989   13.7905 H   0  0  0  0  0  0  0  0  0  0  0  0
   40.1819   21.3150   15.0055 H   0  0  0  0  0  0  0  0  0  0  0  0
   40.5778   20.9382   12.6924 H   0  0  0  0  0  0  0  0  0  0  0  0
   40.3729   18.9163   11.9243 H   0  0  0  0  0  0  0  0  0  0  0  0
   37.8435   20.8642   11.2050 H   0  0  0  0  0  0  0  0  0  0  0  0
   39.7934   19.7437   10.2346 H   0  0  0  0  0  0  0  0  0  0  0  0
   40.1157   22.9438   11.5328 H   0  0  0  0  0  0  0  0  0  0  0  0
   37.7386   22.8966    9.6432 H   0  0  0  0  0  0  0  0  0  0  0  0
   39.2598   23.8946    9.5882 H   0  0  0  0  0  0  0  0  0  0  0  0
   36.9775   26.8081   11.9424 H   0  0  0  0  0  0  0  0  0  0  0  0
   36.4415   26.8922   13.6359 H   0  0  0  0  0  0  0  0  0  0  0  0
   34.8723   24.7669   12.3798 H   0  0  0  0  0  0  0  0  0  0  0  0
   34.9645   26.0458   11.1416 H   0  0  0  0  0  0  0  0  0  0  0  0
   33.1312   25.9579   13.1837 H   0  0  0  0  0  0  0  0  0  0  0  0
   34.3599   26.7662   14.1086 H   0  0  0  0  0  0  0  0  0  0  0  0
   34.6230   28.3640   11.8913 H   0  0  0  0  0  0  0  0  0  0  0  0
   33.4387   28.6188   13.1998 H   0  0  0  0  0  0  0  0  0  0  0  0
   33.0230   27.4954   10.3866 H   0  0  0  0  0  0  0  0  0  0  0  0
   31.9414   26.8541   11.6647 H   0  0  0  0  0  0  0  0  0  0  0  0
   31.4667   29.2944   12.3772 H   0  0  0  0  0  0  0  0  0  0  0  0
   32.3752   29.7841   10.9068 H   0  0  0  0  0  0  0  0  0  0  0  0
   29.7199   29.4501   10.8988 H   0  0  0  0  0  0  0  0  0  0  0  0
   30.7015   29.0564    9.4511 H   0  0  0  0  0  0  0  0  0  0  0  0
   28.8826   27.3536   10.5236 H   0  0  0  0  0  0  0  0  0  0  0  0
   30.2789   26.8680   11.5488 H   0  0  0  0  0  0  0  0  0  0  0  0
   30.3713   26.7272    9.7445 H   0  0  0  0  0  0  0  0  0  0  0  0
  2  1  1  0
  1  3  1  0
  4  1  1  0
  4  6  1  0
  7  4  1  0
  7  8  1  0
  9  7  1  0
  9 10  1  0
 11  9  1  0
 11  2  1  0
 11 12  1  0
 13 12  1  0
 14 13  1  0
 14  5  2  3
 14  2  1  0
 15  5  1  0
 16 15  1  0
 17 16  1  0
 18 17  1  0
 19 18  1  0
 20 19  1  0
 21 20  1  0
 22 21  1  0
  1 23  1  1
  3 24  1  0
  4 25  1  1
  6 26  1  0
  7 27  1  1
  8 28  1  0
  9 29  1  6
 10 30  1  0
 11 31  1  1
 12 32  1  0
 12 33  1  0
 15 34  1  0
 15 35  1  0
 16 36  1  0
 16 37  1  0
 17 38  1  0
 17 39  1  0
 18 40  1  0
 18 41  1  0
 19 42  1  0
 19 43  1  0
 20 44  1  0
 20 45  1  0
 21 46  1  0
 21 47  1  0
 22 48  1  0
 22 49  1  0
 22 50  1  0
M  END
