
     RDKit          3D

 50 51  0  0  0  0  0  0  0  0999 V2000
   43.9554   24.3690  -54.8370 C   0  0  1  0  0  0  0  0  0  0  0  0
   43.8711   24.9768  -56.1659 N   0  0  0  0  0  0  0  0  0  0  0  0
   42.6695   24.3689  -54.2687 O   0  0  0  0  0  0  0  0  0  0  0  0
   44.4904   22.9002  -54.8757 C   0  0  2  0  0  0  0  0  0  0  0  0
   42.4624   26.8593  -55.6822 N   0  0  0  0  0  0  0  0  0  0  0  0
   45.2909   22.6364  -53.7469 O   0  0  0  0  0  0  0  0  0  0  0  0
   45.2362   22.4773  -56.1672 C   0  0  1  0  0  0  0  0  0  0  0  0
   45.3139   21.0758  -56.2068 O   0  0  0  0  0  0  0  0  0  0  0  0
   44.5226   23.0195  -57.4224 C   0  0  2  0  0  0  0  0  0  0  0  0
   45.1348   22.5280  -58.5872 O   0  0  0  0  0  0  0  0  0  0  0  0
   44.6121   24.5442  -57.3388 C   0  0  1  0  0  0  0  0  0  0  0  0
   43.9702   25.3283  -58.5066 C   0  0  0  0  0  0  0  0  0  0  0  0
   43.2502   26.3924  -57.8802 O   0  0  0  0  0  0  0  0  0  0  0  0
   43.1309   26.1274  -56.5317 C   0  0  0  0  0  0  0  0  0  0  0  0
   41.8100   28.1364  -55.9846 C   0  0  0  0  0  0  0  0  0  0  0  0
   40.2944   27.9595  -56.1170 C   0  0  0  0  0  0  0  0  0  0  0  0
   39.6027   29.3134  -56.3570 C   0  0  0  0  0  0  0  0  0  0  0  0
   38.1231   29.1387  -56.7260 C   0  0  0  0  0  0  0  0  0  0  0  0
   37.4254   30.4973  -56.8954 C   0  0  0  0  0  0  0  0  0  0  0  0
   35.9862   30.3437  -57.4170 C   0  0  0  0  0  0  0  0  0  0  0  0
   34.9799   30.0034  -56.3083 C   0  0  0  0  0  0  0  0  0  0  0  0
   33.5487   30.0208  -56.8458 C   0  0  0  0  0  0  0  0  0  0  0  0
   44.6329   25.0077  -54.2244 H   0  0  0  0  0  0  0  0  0  0  0  0
   42.6756   23.6840  -53.5498 H   0  0  0  0  0  0  0  0  0  0  0  0
   43.6000   22.2361  -54.7987 H   0  0  0  0  0  0  0  0  0  0  0  0
   46.0953   23.2150  -53.8109 H   0  0  0  0  0  0  0  0  0  0  0  0
   46.2768   22.8714  -56.1413 H   0  0  0  0  0  0  0  0  0  0  0  0
   45.4331   20.7448  -55.2778 H   0  0  0  0  0  0  0  0  0  0  0  0
   43.4509   22.7040  -57.3986 H   0  0  0  0  0  0  0  0  0  0  0  0
   44.4319   22.4758  -59.2859 H   0  0  0  0  0  0  0  0  0  0  0  0
   45.6729   24.8695  -57.2390 H   0  0  0  0  0  0  0  0  0  0  0  0
   43.2534   24.6953  -59.0725 H   0  0  0  0  0  0  0  0  0  0  0  0
   44.7401   25.7362  -59.1953 H   0  0  0  0  0  0  0  0  0  0  0  0
   42.2250   28.5811  -56.9161 H   0  0  0  0  0  0  0  0  0  0  0  0
   42.0219   28.8397  -55.1510 H   0  0  0  0  0  0  0  0  0  0  0  0
   39.8902   27.4959  -55.1905 H   0  0  0  0  0  0  0  0  0  0  0  0
   40.0907   27.2769  -56.9711 H   0  0  0  0  0  0  0  0  0  0  0  0
   39.6868   29.9322  -55.4365 H   0  0  0  0  0  0  0  0  0  0  0  0
   40.1153   29.8492  -57.1864 H   0  0  0  0  0  0  0  0  0  0  0  0
   37.6121   28.5605  -55.9260 H   0  0  0  0  0  0  0  0  0  0  0  0
   38.0549   28.5631  -57.6754 H   0  0  0  0  0  0  0  0  0  0  0  0
   37.9972   31.0972  -57.6373 H   0  0  0  0  0  0  0  0  0  0  0  0
   37.4335   31.0566  -55.9343 H   0  0  0  0  0  0  0  0  0  0  0  0
   35.9432   29.5763  -58.2211 H   0  0  0  0  0  0  0  0  0  0  0  0
   35.6882   31.3139  -57.8727 H   0  0  0  0  0  0  0  0  0  0  0  0
   35.2001   28.9949  -55.8974 H   0  0  0  0  0  0  0  0  0  0  0  0
   35.0593   30.7456  -55.4844 H   0  0  0  0  0  0  0  0  0  0  0  0
   32.9003   29.3500  -56.2427 H   0  0  0  0  0  0  0  0  0  0  0  0
   33.1384   31.0528  -56.8161 H   0  0  0  0  0  0  0  0  0  0  0  0
   33.5430   29.6668  -57.8982 H   0  0  0  0  0  0  0  0  0  0  0  0
  2  1  1  0
  1  3  1  0
  4  1  1  0
  4  6  1  0
  7  4  1  0
  7  8  1  0
  9  7  1  0
  9 10  1  0
 11  9  1  0
 11  2  1  0
 11 12  1  0
 13 12  1  0
 14 13  1  0
 14  5  2  3
 14  2  1  0
 15  5  1  0
 16 15  1  0
 17 16  1  0
 18 17  1  0
 19 18  1  0
 20 19  1  0
 21 20  1  0
 22 21  1  0
  1 23  1  1
  3 24  1  0
  4 25  1  1
  6 26  1  0
  7 27  1  1
  8 28  1  0
  9 29  1  1
 10 30  1  0
 11 31  1  1
 12 32  1  0
 12 33  1  0
 15 34  1  0
 15 35  1  0
 16 36  1  0
 16 37  1  0
 17 38  1  0
 17 39  1  0
 18 40  1  0
 18 41  1  0
 19 42  1  0
 19 43  1  0
 20 44  1  0
 20 45  1  0
 21 46  1  0
 21 47  1  0
 22 48  1  0
 22 49  1  0
 22 50  1  0
M  END
