
     RDKit          3D

 50 51  0  0  0  0  0  0  0  0999 V2000
   43.4807   23.5512  -54.7303 C   0  0  1  0  0  0  0  0  0  0  0  0
   43.3964   24.1591  -56.0592 N   0  0  0  0  0  0  0  0  0  0  0  0
   42.1948   23.5512  -54.1620 O   0  0  0  0  0  0  0  0  0  0  0  0
   44.0157   22.0825  -54.7690 C   0  0  2  0  0  0  0  0  0  0  0  0
   41.9877   26.0415  -55.5755 N   0  0  0  0  0  0  0  0  0  0  0  0
   44.8162   21.8187  -53.6402 O   0  0  0  0  0  0  0  0  0  0  0  0
   44.7615   21.6595  -56.0605 C   0  0  1  0  0  0  0  0  0  0  0  0
   44.8392   20.2581  -56.1001 O   0  0  0  0  0  0  0  0  0  0  0  0
   44.0479   22.2018  -57.3157 C   0  0  2  0  0  0  0  0  0  0  0  0
   44.6601   21.7102  -58.4806 O   0  0  0  0  0  0  0  0  0  0  0  0
   44.1374   23.7264  -57.2322 C   0  0  1  0  0  0  0  0  0  0  0  0
   43.4955   24.5106  -58.3999 C   0  0  0  0  0  0  0  0  0  0  0  0
   42.7755   25.5747  -57.7735 O   0  0  0  0  0  0  0  0  0  0  0  0
   42.6562   25.3097  -56.4251 C   0  0  0  0  0  0  0  0  0  0  0  0
   41.3353   27.3187  -55.8779 C   0  0  0  0  0  0  0  0  0  0  0  0
   39.8336   27.1254  -56.1091 C   0  0  0  0  0  0  0  0  0  0  0  0
   39.1369   28.4768  -56.3493 C   0  0  0  0  0  0  0  0  0  0  0  0
   37.6857   28.2939  -56.8142 C   0  0  0  0  0  0  0  0  0  0  0  0
   36.9786   29.6475  -56.9842 C   0  0  0  0  0  0  0  0  0  0  0  0
   35.5766   29.4911  -57.5982 C   0  0  0  0  0  0  0  0  0  0  0  0
   34.5097   29.1020  -56.5648 C   0  0  0  0  0  0  0  0  0  0  0  0
   33.1140   29.1171  -57.1889 C   0  0  0  0  0  0  0  0  0  0  0  0
   44.1582   24.1899  -54.1178 H   0  0  0  0  0  0  0  0  0  0  0  0
   41.9763   24.4965  -53.9511 H   0  0  0  0  0  0  0  0  0  0  0  0
   43.1253   21.4184  -54.6920 H   0  0  0  0  0  0  0  0  0  0  0  0
   45.6206   22.3973  -53.7042 H   0  0  0  0  0  0  0  0  0  0  0  0
   45.8021   22.0537  -56.0346 H   0  0  0  0  0  0  0  0  0  0  0  0
   44.7443   19.9153  -55.1726 H   0  0  0  0  0  0  0  0  0  0  0  0
   42.9762   21.8863  -57.2920 H   0  0  0  0  0  0  0  0  0  0  0  0
   45.3048   21.0108  -58.1978 H   0  0  0  0  0  0  0  0  0  0  0  0
   45.1982   24.0517  -57.1323 H   0  0  0  0  0  0  0  0  0  0  0  0
   42.7787   23.8775  -58.9658 H   0  0  0  0  0  0  0  0  0  0  0  0
   44.2654   24.9184  -59.0887 H   0  0  0  0  0  0  0  0  0  0  0  0
   41.7997   27.7984  -56.7678 H   0  0  0  0  0  0  0  0  0  0  0  0
   41.4847   27.9978  -55.0114 H   0  0  0  0  0  0  0  0  0  0  0  0
   39.3806   26.6272  -55.2242 H   0  0  0  0  0  0  0  0  0  0  0  0
   39.6933   26.4677  -56.9949 H   0  0  0  0  0  0  0  0  0  0  0  0
   39.1549   29.0670  -55.4066 H   0  0  0  0  0  0  0  0  0  0  0  0
   39.6911   29.0457  -57.1284 H   0  0  0  0  0  0  0  0  0  0  0  0
   37.1356   27.6836  -56.0656 H   0  0  0  0  0  0  0  0  0  0  0  0
   37.6847   27.7479  -57.7834 H   0  0  0  0  0  0  0  0  0  0  0  0
   37.5854   30.2785  -57.6705 H   0  0  0  0  0  0  0  0  0  0  0  0
   36.9191   30.1760  -56.0075 H   0  0  0  0  0  0  0  0  0  0  0  0
   35.5950   28.7492  -58.4268 H   0  0  0  0  0  0  0  0  0  0  0  0
   35.2922   30.4711  -58.0412 H   0  0  0  0  0  0  0  0  0  0  0  0
   34.7200   28.0840  -56.1726 H   0  0  0  0  0  0  0  0  0  0  0  0
   34.5270   29.8186  -55.7150 H   0  0  0  0  0  0  0  0  0  0  0  0
   33.1435   28.6896  -58.2138 H   0  0  0  0  0  0  0  0  0  0  0  0
   32.4068   28.5293  -56.5656 H   0  0  0  0  0  0  0  0  0  0  0  0
   32.7468   30.1631  -57.2518 H   0  0  0  0  0  0  0  0  0  0  0  0
  2  1  1  0
  1  3  1  0
  4  1  1  0
  4  6  1  0
  7  4  1  0
  7  8  1  0
  9  7  1  0
  9 10  1  0
 11  9  1  0
 11  2  1  0
 11 12  1  0
 13 12  1  0
 14 13  1  0
 14  5  2  3
 14  2  1  0
 15  5  1  0
 16 15  1  0
 17 16  1  0
 18 17  1  0
 19 18  1  0
 20 19  1  0
 21 20  1  0
 22 21  1  0
  1 23  1  1
  3 24  1  0
  4 25  1  1
  6 26  1  0
  7 27  1  1
  8 28  1  0
  9 29  1  1
 10 30  1  0
 11 31  1  1
 12 32  1  0
 12 33  1  0
 15 34  1  0
 15 35  1  0
 16 36  1  0
 16 37  1  0
 17 38  1  0
 17 39  1  0
 18 40  1  0
 18 41  1  0
 19 42  1  0
 19 43  1  0
 20 44  1  0
 20 45  1  0
 21 46  1  0
 21 47  1  0
 22 48  1  0
 22 49  1  0
 22 50  1  0
M  END
