
     RDKit          3D

 38 40  0  0  0  0  0  0  0  0999 V2000
   56.8745   63.9294   18.4997 P   0  0  0  0  0  0  0  0  0  0  0  0
   57.1523   62.7672   19.4280 O   0  0  0  0  0  0  0  0  0  0  0  0
   57.0945   63.4252   16.9144 O   0  0  0  0  0  0  0  0  0  0  0  0
   57.9332   65.1886   18.8424 O   0  0  0  0  0  0  0  0  0  0  0  0
   55.0233   65.7166   18.2906 C   0  0  0  0  0  0  0  0  0  0  0  0
   55.2530   64.3807   18.6753 O   0  0  0  0  0  0  0  0  0  0  0  0
   53.5015   65.9409   18.2867 C   0  0  1  0  0  0  0  0  0  0  0  0
   52.9276   65.2611   17.1842 O   0  0  0  0  0  0  0  0  0  0  0  0
   52.8739   65.4024   19.5861 C   0  0  1  0  0  0  0  0  0  0  0  0
   51.8175   66.2355   19.9949 O   0  0  0  0  0  0  0  0  0  0  0  0
   52.3466   64.0556   19.1408 C   0  0  1  0  0  0  0  0  0  0  0  0
   51.2743   63.6060   19.9317 O   0  0  0  0  0  0  0  0  0  0  0  0
   51.9774   64.3465   17.6838 C   0  0  2  0  0  0  0  0  0  0  0  0
   49.3544   61.3919   14.3462 N   0  0  0  0  0  0  0  0  0  0  0  0
   48.9165   62.4896   15.0478 C   0  0  0  0  0  0  0  0  0  0  0  0
   47.5811   62.9523   14.8818 N   0  0  0  0  0  0  0  0  0  0  0  0
   49.7553   63.1402   15.9119 N   0  0  0  0  0  0  0  0  0  0  0  0
   51.0206   62.6738   16.0527 C   0  0  0  0  0  0  0  0  0  0  0  0
   51.4801   61.6035   15.3648 C   0  0  0  0  0  0  0  0  0  0  0  0
   50.6345   60.9312   14.4840 C   0  0  0  0  0  0  0  0  0  0  0  0
   51.0231   59.9264   13.8324 O   0  0  0  0  0  0  0  0  0  0  0  0
   52.7696   61.3656   15.6783 N   0  0  0  0  0  0  0  0  0  0  0  0
   53.0516   62.3390   16.5861 C   0  0  0  0  0  0  0  0  0  0  0  0
   51.9916   63.1454   16.8496 N   0  0  0  0  0  0  0  0  0  0  0  0
   56.8462   62.4665   16.9173 H   0  0  0  0  0  0  0  0  0  0  0  0
   57.5342   65.6504   19.6228 H   0  0  0  0  0  0  0  0  0  0  0  0
   55.4616   66.4492   19.0029 H   0  0  0  0  0  0  0  0  0  0  0  0
   55.4395   65.8983   17.2759 H   0  0  0  0  0  0  0  0  0  0  0  0
   53.3063   67.0306   18.1767 H   0  0  0  0  0  0  0  0  0  0  0  0
   53.6044   65.2811   20.4212 H   0  0  0  0  0  0  0  0  0  0  0  0
   52.2338   67.0219   20.4350 H   0  0  0  0  0  0  0  0  0  0  0  0
   53.1510   63.2932   19.1966 H   0  0  0  0  0  0  0  0  0  0  0  0
   51.0814   64.2872   20.6269 H   0  0  0  0  0  0  0  0  0  0  0  0
   50.9751   64.8288   17.6278 H   0  0  0  0  0  0  0  0  0  0  0  0
   48.7019   60.9024   13.6924 H   0  0  0  0  0  0  0  0  0  0  0  0
   46.9382   62.4758   14.2110 H   0  0  0  0  0  0  0  0  0  0  0  0
   47.2273   63.7703   15.4257 H   0  0  0  0  0  0  0  0  0  0  0  0
   54.0289   62.4632   17.0336 H   0  0  0  0  0  0  0  0  0  0  0  0
  2  1  2  0
  3  1  1  0
  4  1  1  0
  6  5  1  0
  6  1  1  0
  7  5  1  0
  8  7  1  0
  9  7  1  0
  9 10  1  0
 11  9  1  0
 11 12  1  0
 13 11  1  0
 13  8  1  0
 15 14  1  0
 16 15  1  0
 17 15  2  0
 18 17  1  0
 19 18  2  0
 20 19  1  0
 20 14  1  0
 21 20  2  0
 22 19  1  0
 23 22  2  0
 24 23  1  0
 24 18  1  0
 13 24  1  0
  3 25  1  0
  4 26  1  0
  5 27  1  0
  5 28  1  0
  7 29  1  6
  9 30  1  1
 10 31  1  0
 11 32  1  6
 12 33  1  0
 13 34  1  1
 14 35  1  0
 16 36  1  0
 16 37  1  0
 23 38  1  0
M  END
