
     RDKit          3D

 75 82  0  0  0  0  0  0  0  0999 V2000
   11.5914   56.3852   61.0801 C   0  0  0  0  0  0  0  0  0  0  0  0
   13.9865   51.0070   69.0886 C   0  0  0  0  0  0  0  0  0  0  0  0
   15.3070   46.3502   62.8032 C   0  0  0  0  0  0  0  0  0  0  0  0
   12.6485   52.0941   57.8846 C   0  0  0  0  0  0  0  0  0  0  0  0
   12.6990   53.4449   63.1476 N   0  0  0  0  0  0  0  0  0  0  0  0
   12.7668   57.1889   60.5033 C   0  0  0  0  0  0  0  0  0  0  0  0
   13.5060   51.3644   70.2795 C   0  0  0  0  0  0  0  0  0  0  0  0
   16.3569   45.5979   63.1384 C   0  0  0  0  0  0  0  0  0  0  0  0
   11.1655   52.1018   57.4731 C   0  0  0  0  0  0  0  0  0  0  0  0
   13.4506   51.9717   65.5494 N   0  0  0  0  0  0  0  0  0  0  0  0
   13.9709   56.3394   60.1941 C   0  0  0  0  0  0  0  0  0  0  0  0
   10.9701   52.9485   56.2441 C   0  0  0  0  0  0  0  0  0  0  0  0
   13.2414   51.1984   61.4680 N   0  0  0  0  0  0  0  0  0  0  0  0
   12.3868   53.3096   60.7081 C   0  0  0  0  0  0  0  0  0  0  0  0
   12.7678   54.3586   65.4578 C   0  0  0  0  0  0  0  0  0  0  0  0
   14.1955   49.7094   66.2784 C   0  0  0  0  0  0  0  0  0  0  0  0
   14.1615   48.9730   61.4641 C   0  0  0  0  0  0  0  0  0  0  0  0
   11.9304   57.0271   64.1648 C   0  0  0  0  0  0  0  0  0  0  0  0
   13.0430   54.0802   68.5911 C   0  0  0  0  0  0  0  0  0  0  0  0
   15.2826   46.8058   65.9494 C   0  0  0  0  0  0  0  0  0  0  0  0
   13.7612   49.1235   58.4160 C   0  0  0  0  0  0  0  0  0  0  0  0
   12.3857   54.0059   62.0113 C   0  0  0  0  0  0  0  0  0  0  0  0
   13.1731   53.1357   66.1702 C   0  0  0  0  0  0  0  0  0  0  0  0
   14.3512   49.1270   65.0755 C   0  0  0  0  0  0  0  0  0  0  0  0
   13.6383   50.0583   60.8436 C   0  0  0  0  0  0  0  0  0  0  0  0
   15.1359   56.6960   60.5190 O   0  0  0  0  0  0  0  0  0  0  0  0
   10.9560   54.2043   56.3286 O   0  0  0  0  0  0  0  0  0  0  0  0
   12.0394   55.4315   62.1732 C   0  0  0  0  0  0  0  0  0  0  0  0
   13.2945   53.0075   67.5594 C   0  0  0  0  0  0  0  0  0  0  0  0
   14.8678   47.7710   64.8676 C   0  0  0  0  0  0  0  0  0  0  0  0
   13.4340   50.1659   59.4613 C   0  0  0  0  0  0  0  0  0  0  0  0
   13.7835   55.1223   59.5627 O   0  0  0  0  0  0  0  0  0  0  0  0
   10.8650   52.3505   54.9980 O   0  0  0  0  0  0  0  0  0  0  0  0
   12.1750   55.7137   63.4706 C   0  0  0  0  0  0  0  0  0  0  0  0
   13.6659   51.6855   67.7931 C   0  0  0  0  0  0  0  0  0  0  0  0
   14.8977   47.5783   63.5446 C   0  0  0  0  0  0  0  0  0  0  0  0
   12.9117   51.4443   59.2333 C   0  0  0  0  0  0  0  0  0  0  0  0
   12.5762   54.4766   64.1301 C   0  0  0  0  0  0  0  0  0  0  0  0
   13.7775   51.1008   66.5268 C   0  0  0  0  0  0  0  0  0  0  0  0
   14.3553   48.8064   62.9224 C   0  0  0  0  0  0  0  0  0  0  0  0
   12.8141   52.0477   60.4937 C   0  0  0  0  0  0  0  0  0  0  0  0
   14.0437   49.7093   63.8084 N   0  0  0  0  0  0  0  0  0  0  0  0
   13.2179   51.5066   63.5202 Mn  0  0  1  0  0  4  0  0  0  0  0  0
   10.8324   57.0803   61.4985 H   0  0  0  0  0  0  0  0  0  0  0  0
   11.0806   55.8298   60.2676 H   0  0  0  0  0  0  0  0  0  0  0  0
   14.6750   50.1737   69.0744 H   0  0  0  0  0  0  0  0  0  0  0  0
   14.7606   46.0864   61.9073 H   0  0  0  0  0  0  0  0  0  0  0  0
   13.0457   53.1300   57.9317 H   0  0  0  0  0  0  0  0  0  0  0  0
   13.2409   51.5830   57.0969 H   0  0  0  0  0  0  0  0  0  0  0  0
   13.0621   57.9737   61.2328 H   0  0  0  0  0  0  0  0  0  0  0  0
   12.4470   57.6923   59.5658 H   0  0  0  0  0  0  0  0  0  0  0  0
   12.7622   52.1382   70.3890 H   0  0  0  0  0  0  0  0  0  0  0  0
   13.8128   50.8252   71.1665 H   0  0  0  0  0  0  0  0  0  0  0  0
   16.6133   44.7323   62.5416 H   0  0  0  0  0  0  0  0  0  0  0  0
   16.9887   45.8533   63.9782 H   0  0  0  0  0  0  0  0  0  0  0  0
   10.5478   52.5227   58.2947 H   0  0  0  0  0  0  0  0  0  0  0  0
   10.8315   51.0608   57.2729 H   0  0  0  0  0  0  0  0  0  0  0  0
   12.0704   53.8873   59.8539 H   0  0  0  0  0  0  0  0  0  0  0  0
   12.5914   55.2353   66.0611 H   0  0  0  0  0  0  0  0  0  0  0  0
   14.4491   49.1220   67.1454 H   0  0  0  0  0  0  0  0  0  0  0  0
   14.4705   48.1405   60.8490 H   0  0  0  0  0  0  0  0  0  0  0  0
   10.9988   56.9610   64.7642 H   0  0  0  0  0  0  0  0  0  0  0  0
   11.8344   57.8603   63.4400 H   0  0  0  0  0  0  0  0  0  0  0  0
   12.7833   57.2634   64.8344 H   0  0  0  0  0  0  0  0  0  0  0  0
   13.1981   55.0923   68.1704 H   0  0  0  0  0  0  0  0  0  0  0  0
   12.0035   53.9990   68.9709 H   0  0  0  0  0  0  0  0  0  0  0  0
   13.7641   53.9834   69.4279 H   0  0  0  0  0  0  0  0  0  0  0  0
   16.3300   47.0123   66.2519 H   0  0  0  0  0  0  0  0  0  0  0  0
   15.1943   45.7571   65.6001 H   0  0  0  0  0  0  0  0  0  0  0  0
   14.6182   46.8993   66.8319 H   0  0  0  0  0  0  0  0  0  0  0  0
   13.4799   48.1134   58.7785 H   0  0  0  0  0  0  0  0  0  0  0  0
   13.1914   49.3054   57.4825 H   0  0  0  0  0  0  0  0  0  0  0  0
   14.8480   49.1487   58.1940 H   0  0  0  0  0  0  0  0  0  0  0  0
   14.5698   54.5205   59.3481 H   0  0  0  0  0  0  0  0  0  0  0  0
   10.0922   51.7329   54.7800 H   0  0  0  0  0  0  0  0  0  0  0  0
  6  1  1  0
  7  2  2  0
  8  3  2  0
  9  4  1  0
 11  6  1  0
 12  9  1  0
 22 14  1  0
 22  5  2  0
 23 15  1  0
 23 10  1  0
 24 16  2  0
 25 17  2  0
 25 13  1  0
 26 11  2  0
 27 12  2  0
 28 22  1  0
 28  1  1  0
 29 23  2  0
 29 19  1  0
 30 20  1  0
 30 24  1  0
 31 21  1  0
 31 25  1  0
 32 11  1  0
 33 12  1  0
 34 28  2  0
 34 18  1  0
 35 29  1  0
 35  2  1  0
 36 30  2  0
 36  3  1  0
 37 31  2  0
 37  4  1  0
 38 15  2  0
 38  5  1  0
 38 34  1  0
 39 16  1  0
 39 10  1  0
 39 35  2  0
 40 36  1  0
 40 17  1  0
 41 37  1  0
 41 14  2  0
 41 13  1  0
 42 40  2  0
 42 24  1  0
 43 13  1  0
 43 42  1  0
 43 10  1  0
 43  5  1  0
  1 44  1  0
  1 45  1  0
  2 46  1  0
  3 47  1  0
  4 48  1  0
  4 49  1  0
  6 50  1  0
  6 51  1  0
  7 52  1  0
  7 53  1  0
  8 54  1  0
  8 55  1  0
  9 56  1  0
  9 57  1  0
 14 58  1  0
 15 59  1  0
 16 60  1  0
 17 61  1  0
 18 62  1  0
 18 63  1  0
 18 64  1  0
 19 65  1  0
 19 66  1  0
 19 67  1  0
 20 68  1  0
 20 69  1  0
 20 70  1  0
 21 71  1  0
 21 72  1  0
 21 73  1  0
 32 74  1  0
 33 75  1  0
M  CHG  3   5   1  42   1  43   3
M  END
