
     RDKit          3D

 14 15  0  0  0  0  0  0  0  0999 V2000
   17.6148   -3.5188   23.3406 N   0  0  0  0  0  0  0  0  0  0  0  0
   16.7675   -4.3938   22.7044 C   0  0  0  0  0  0  0  0  0  0  0  0
   16.0707   -4.0050   21.5919 N   0  0  0  0  0  0  0  0  0  0  0  0
   16.2344   -2.7364   21.1413 C   0  0  0  0  0  0  0  0  0  0  0  0
   17.0570   -1.8554   21.7566 C   0  0  0  0  0  0  0  0  0  0  0  0
   17.7840   -2.2411   22.8822 C   0  0  0  0  0  0  0  0  0  0  0  0
   18.5797   -1.4523   23.4592 O   0  0  0  0  0  0  0  0  0  0  0  0
   17.0122   -0.6854   21.1023 N   0  0  0  0  0  0  0  0  0  0  0  0
   16.1428   -0.9085   20.0831 C   0  0  0  0  0  0  0  0  0  0  0  0
   15.6392   -2.1730   20.0725 N   0  0  0  0  0  0  0  0  0  0  0  0
   18.1407   -3.8421   24.1837 H   0  0  0  0  0  0  0  0  0  0  0  0
   16.6507   -5.4014   23.0813 H   0  0  0  0  0  0  0  0  0  0  0  0
   17.5295    0.1950   21.3204 H   0  0  0  0  0  0  0  0  0  0  0  0
   15.8780   -0.1574   19.3508 H   0  0  0  0  0  0  0  0  0  0  0  0
  2  1  1  0
  3  2  2  0
  4  3  1  0
  5  4  2  0
  6  5  1  0
  6  1  1  0
  7  6  2  0
  8  5  1  0
  9  8  1  0
 10  9  2  0
 10  4  1  0
  1 11  1  0
  2 12  1  0
  8 13  1  0
  9 14  1  0
M  END
