
     RDKit          3D

 14 15  0  0  0  0  0  0  0  0999 V2000
   16.3573   -3.5476   22.8997 N   0  0  0  0  0  0  0  0  0  0  0  0
   15.5101   -4.4226   22.2635 C   0  0  0  0  0  0  0  0  0  0  0  0
   14.8132   -4.0339   21.1510 N   0  0  0  0  0  0  0  0  0  0  0  0
   14.9770   -2.7652   20.7004 C   0  0  0  0  0  0  0  0  0  0  0  0
   15.7995   -1.8842   21.3157 C   0  0  0  0  0  0  0  0  0  0  0  0
   16.5265   -2.2699   22.4413 C   0  0  0  0  0  0  0  0  0  0  0  0
   17.3222   -1.4811   23.0183 O   0  0  0  0  0  0  0  0  0  0  0  0
   15.7548   -0.7143   20.6614 N   0  0  0  0  0  0  0  0  0  0  0  0
   14.8853   -0.9373   19.6422 C   0  0  0  0  0  0  0  0  0  0  0  0
   14.3818   -2.2019   19.6316 N   0  0  0  0  0  0  0  0  0  0  0  0
   16.8832   -3.8710   23.7428 H   0  0  0  0  0  0  0  0  0  0  0  0
   15.3932   -5.4303   22.6404 H   0  0  0  0  0  0  0  0  0  0  0  0
   16.2720    0.1661   20.8795 H   0  0  0  0  0  0  0  0  0  0  0  0
   14.6205   -0.1863   18.9099 H   0  0  0  0  0  0  0  0  0  0  0  0
  2  1  1  0
  3  2  2  0
  4  3  1  0
  5  4  2  0
  6  5  1  0
  6  1  1  0
  7  6  2  0
  8  5  1  0
  9  8  1  0
 10  9  2  0
 10  4  1  0
  1 11  1  0
  2 12  1  0
  8 13  1  0
  9 14  1  0
M  END
