
     RDKit          3D

 14 15  0  0  0  0  0  0  0  0999 V2000
   10.3922    4.2032   61.0434 N   0  0  0  0  0  0  0  0  0  0  0  0
    9.4504    3.4341   61.6854 C   0  0  0  0  0  0  0  0  0  0  0  0
    9.7960    2.6777   62.7742 N   0  0  0  0  0  0  0  0  0  0  0  0
   11.0854    2.7145   63.2002 C   0  0  0  0  0  0  0  0  0  0  0  0
   12.0265    3.4656   62.5842 C   0  0  0  0  0  0  0  0  0  0  0  0
   11.6924    4.2333   61.4743 C   0  0  0  0  0  0  0  0  0  0  0  0
   12.5543    4.9361   60.8822 O   0  0  0  0  0  0  0  0  0  0  0  0
   13.2003    3.3122   63.2159 N   0  0  0  0  0  0  0  0  0  0  0  0
   12.9192    2.4441   64.2216 C   0  0  0  0  0  0  0  0  0  0  0  0
   11.6154    2.0498   64.2444 N   0  0  0  0  0  0  0  0  0  0  0  0
   10.1068    4.7702   60.2135 H   0  0  0  0  0  0  0  0  0  0  0  0
    8.4287    3.4218   61.3291 H   0  0  0  0  0  0  0  0  0  0  0  0
   14.1187    3.7539   62.9889 H   0  0  0  0  0  0  0  0  0  0  0  0
   13.6566    2.0992   64.9343 H   0  0  0  0  0  0  0  0  0  0  0  0
  2  1  1  0
  3  2  2  0
  4  3  1  0
  5  4  2  0
  6  1  1  0
  6  5  1  0
  7  6  2  0
  8  5  1  0
  9  8  1  0
 10  4  1  0
 10  9  2  0
  1 11  1  0
  2 12  1  0
  8 13  1  0
  9 14  1  0
M  END
