
     RDKit          3D

 49 53  0  0  0  0  0  0  0  0999 V2000
    9.0607   34.8828  -23.6508 C   0  0  0  0  0  0  0  0  0  0  0  0
    7.8810   35.4279  -23.1031 C   0  0  0  0  0  0  0  0  0  0  0  0
    6.6661   34.7589  -23.2952 C   0  0  0  0  0  0  0  0  0  0  0  0
    9.0295   33.6850  -24.4118 C   0  0  0  0  0  0  0  0  0  0  0  0
    7.7962   33.0267  -24.6020 C   0  0  0  0  0  0  0  0  0  0  0  0
    6.6434   33.5754  -24.0455 C   0  0  0  0  0  0  0  0  0  0  0  0
    5.4600   32.6855  -24.2457 C   0  0  2  0  0  0  0  0  0  0  0  0
    7.4052   31.7629  -25.3075 C   0  0  0  0  0  0  0  0  0  0  0  0
    6.0293   31.6174  -25.1147 C   0  0  0  0  0  0  0  0  0  0  0  0
    5.2930   30.5602  -25.6612 C   0  0  0  0  0  0  0  0  0  0  0  0
    5.9559   29.6067  -26.4348 C   0  0  0  0  0  0  0  0  0  0  0  0
    7.3406   29.7283  -26.6524 C   0  0  0  0  0  0  0  0  0  0  0  0
    8.0974   30.7946  -26.0977 C   0  0  0  0  0  0  0  0  0  0  0  0
    9.5508   30.8219  -26.4111 C   0  0  0  0  0  0  0  0  0  0  0  0
   10.0971   30.2450  -27.5133 N   0  0  0  0  0  0  0  0  0  0  0  0
   10.4475   31.5548  -25.6868 N   0  0  0  0  0  0  0  0  0  0  0  0
   11.6067   31.4031  -26.3371 C   0  0  0  0  0  0  0  0  0  0  0  0
   11.3930   30.6220  -27.4326 C   0  0  0  0  0  0  0  0  0  0  0  0
   12.4303   30.3024  -28.3088 C   0  0  0  0  0  0  0  0  0  0  0  0
   13.7019   30.8207  -28.0147 C   0  0  0  0  0  0  0  0  0  0  0  0
   13.8957   31.5975  -26.8991 N   0  0  0  0  0  0  0  0  0  0  0  0
   12.8761   31.9058  -26.0406 C   0  0  0  0  0  0  0  0  0  0  0  0
    4.3484   33.3459  -24.9216 N   0  0  0  0  0  0  0  0  0  0  0  0
    3.2501   33.9029  -24.1961 C   0  0  0  0  0  0  0  0  0  0  0  0
    2.2964   34.8224  -24.9075 C   0  0  0  0  0  0  0  0  0  0  0  0
    3.0533   33.5649  -22.9965 O   0  0  0  0  0  0  0  0  0  0  0  0
    1.3330   35.5523  -23.9689 C   0  0  0  0  0  0  0  0  0  0  0  0
    0.0983   35.9825  -24.6918 C   0  0  0  0  0  0  0  0  0  0  0  0
    0.1611   36.5488  -25.8210 O   0  0  0  0  0  0  0  0  0  0  0  0
   -1.1614   35.7353  -24.0941 N   0  0  0  0  0  0  0  0  0  0  0  0
   10.0031   35.3928  -23.4994 H   0  0  0  0  0  0  0  0  0  0  0  0
    7.9168   36.3431  -22.5267 H   0  0  0  0  0  0  0  0  0  0  0  0
    5.7558   35.1465  -22.8559 H   0  0  0  0  0  0  0  0  0  0  0  0
    9.9411   33.2980  -24.8394 H   0  0  0  0  0  0  0  0  0  0  0  0
    5.1573   32.2403  -23.2731 H   0  0  0  0  0  0  0  0  0  0  0  0
    4.2285   30.4762  -25.4827 H   0  0  0  0  0  0  0  0  0  0  0  0
    5.4073   28.7793  -26.8659 H   0  0  0  0  0  0  0  0  0  0  0  0
    7.8315   28.9739  -27.2555 H   0  0  0  0  0  0  0  0  0  0  0  0
   10.2725   32.1072  -24.8177 H   0  0  0  0  0  0  0  0  0  0  0  0
   12.2620   29.6841  -29.1809 H   0  0  0  0  0  0  0  0  0  0  0  0
   14.5368   30.6019  -28.6669 H   0  0  0  0  0  0  0  0  0  0  0  0
   13.0513   32.5224  -25.1692 H   0  0  0  0  0  0  0  0  0  0  0  0
    4.3431   33.3872  -25.9666 H   0  0  0  0  0  0  0  0  0  0  0  0
    2.8694   35.5720  -25.4956 H   0  0  0  0  0  0  0  0  0  0  0  0
    1.7235   34.1948  -25.6254 H   0  0  0  0  0  0  0  0  0  0  0  0
    1.0353   34.8954  -23.1244 H   0  0  0  0  0  0  0  0  0  0  0  0
    1.8359   36.4451  -23.5394 H   0  0  0  0  0  0  0  0  0  0  0  0
   -2.0378   36.0175  -24.5866 H   0  0  0  0  0  0  0  0  0  0  0  0
   -1.2411   35.2807  -23.1573 H   0  0  0  0  0  0  0  0  0  0  0  0
  2  1  2  0
  3  2  1  0
  4  1  1  0
  5  4  2  0
  6  5  1  0
  6  3  2  0
  7  6  1  0
  8  5  1  0
  9  7  1  0
  9  8  2  0
 10  9  1  0
 11 10  2  0
 12 11  1  0
 13 12  2  0
 13  8  1  0
 14 13  1  0
 15 14  2  0
 16 14  1  0
 17 16  1  0
 18 17  2  0
 18 15  1  0
 19 18  1  0
 20 19  2  0
 21 20  1  0
 22 17  1  0
 22 21  2  0
  7 23  1  0
 24 23  1  0
 25 24  1  0
 26 24  2  0
 27 25  1  0
 28 27  1  0
 29 28  2  0
 30 28  1  0
  1 31  1  0
  2 32  1  0
  3 33  1  0
  4 34  1  0
  7 35  1  1
 10 36  1  0
 11 37  1  0
 12 38  1  0
 16 39  1  0
 19 40  1  0
 20 41  1  0
 22 42  1  0
 23 43  1  0
 25 44  1  0
 25 45  1  0
 27 46  1  0
 27 47  1  0
 30 48  1  0
 30 49  1  0
M  END
