
     RDKit          3D

 49 53  0  0  0  0  0  0  0  0999 V2000
    6.7828   34.8763  -23.5031 C   0  0  0  0  0  0  0  0  0  0  0  0
    5.6031   35.4213  -22.9555 C   0  0  0  0  0  0  0  0  0  0  0  0
    4.3882   34.7524  -23.1475 C   0  0  0  0  0  0  0  0  0  0  0  0
    6.7517   33.6785  -24.2641 C   0  0  0  0  0  0  0  0  0  0  0  0
    5.5184   33.0202  -24.4543 C   0  0  0  0  0  0  0  0  0  0  0  0
    4.3656   33.5689  -23.8979 C   0  0  0  0  0  0  0  0  0  0  0  0
    3.1821   32.6789  -24.0980 C   0  0  2  0  0  0  0  0  0  0  0  0
    5.1273   31.7563  -25.1599 C   0  0  0  0  0  0  0  0  0  0  0  0
    3.7515   31.6109  -24.9670 C   0  0  0  0  0  0  0  0  0  0  0  0
    3.0151   30.5536  -25.5136 C   0  0  0  0  0  0  0  0  0  0  0  0
    3.6781   29.6001  -26.2871 C   0  0  0  0  0  0  0  0  0  0  0  0
    5.0628   29.7218  -26.5048 C   0  0  0  0  0  0  0  0  0  0  0  0
    5.8196   30.7881  -25.9500 C   0  0  0  0  0  0  0  0  0  0  0  0
    7.2729   30.8153  -26.2634 C   0  0  0  0  0  0  0  0  0  0  0  0
    8.1641   29.9026  -25.7954 N   0  0  0  0  0  0  0  0  0  0  0  0
    7.8159   31.6828  -27.1681 N   0  0  0  0  0  0  0  0  0  0  0  0
    9.1028   31.3254  -27.2439 C   0  0  0  0  0  0  0  0  0  0  0  0
    9.3074   30.2566  -26.4242 C   0  0  0  0  0  0  0  0  0  0  0  0
   10.5637   29.6615  -26.3087 C   0  0  0  0  0  0  0  0  0  0  0  0
   11.6065   30.2091  -27.0734 C   0  0  0  0  0  0  0  0  0  0  0  0
   11.3790   31.2931  -27.8850 N   0  0  0  0  0  0  0  0  0  0  0  0
   10.1459   31.8759  -27.9928 C   0  0  0  0  0  0  0  0  0  0  0  0
    2.0706   33.3393  -24.7739 N   0  0  0  0  0  0  0  0  0  0  0  0
    2.0358   34.7564  -24.9573 C   0  0  0  0  0  0  0  0  0  0  0  0
    0.7072   35.4366  -25.1399 C   0  0  0  0  0  0  0  0  0  0  0  0
    3.1042   35.4246  -24.8939 O   0  0  0  0  0  0  0  0  0  0  0  0
   -0.2572   34.6657  -26.0440 C   0  0  0  0  0  0  0  0  0  0  0  0
   -1.1720   33.7988  -25.2416 C   0  0  0  0  0  0  0  0  0  0  0  0
   -0.7339   33.0699  -24.3054 O   0  0  0  0  0  0  0  0  0  0  0  0
   -2.5564   33.8115  -25.5389 N   0  0  0  0  0  0  0  0  0  0  0  0
    7.7252   35.3863  -23.3517 H   0  0  0  0  0  0  0  0  0  0  0  0
    5.6389   36.3365  -22.3790 H   0  0  0  0  0  0  0  0  0  0  0  0
    3.4780   35.1399  -22.7082 H   0  0  0  0  0  0  0  0  0  0  0  0
    7.6633   33.2914  -24.6917 H   0  0  0  0  0  0  0  0  0  0  0  0
    2.8795   32.2337  -23.1255 H   0  0  0  0  0  0  0  0  0  0  0  0
    1.9506   30.4696  -25.3350 H   0  0  0  0  0  0  0  0  0  0  0  0
    3.1295   28.7727  -26.7182 H   0  0  0  0  0  0  0  0  0  0  0  0
    5.5537   28.9673  -27.1078 H   0  0  0  0  0  0  0  0  0  0  0  0
    7.3382   32.4555  -27.6837 H   0  0  0  0  0  0  0  0  0  0  0  0
   10.7277   28.8108  -25.6601 H   0  0  0  0  0  0  0  0  0  0  0  0
   12.5977   29.7794  -27.0187 H   0  0  0  0  0  0  0  0  0  0  0  0
    9.9891   32.7275  -28.6411 H   0  0  0  0  0  0  0  0  0  0  0  0
    1.2652   32.7617  -25.1079 H   0  0  0  0  0  0  0  0  0  0  0  0
    0.2292   35.5943  -24.1486 H   0  0  0  0  0  0  0  0  0  0  0  0
    0.9185   36.4374  -25.5771 H   0  0  0  0  0  0  0  0  0  0  0  0
   -0.8743   35.3657  -26.6463 H   0  0  0  0  0  0  0  0  0  0  0  0
    0.3204   34.0328  -26.7514 H   0  0  0  0  0  0  0  0  0  0  0  0
   -3.2155   33.2219  -24.9836 H   0  0  0  0  0  0  0  0  0  0  0  0
   -2.9427   34.3945  -26.3144 H   0  0  0  0  0  0  0  0  0  0  0  0
  2  1  2  0
  3  2  1  0
  4  1  1  0
  5  4  2  0
  6  5  1  0
  6  3  2  0
  7  6  1  0
  8  5  1  0
  9  7  1  0
  9  8  2  0
 10  9  1  0
 11 10  2  0
 12 11  1  0
 13 12  2  0
 13  8  1  0
 14 13  1  0
 15 14  2  0
 16 14  1  0
 17 16  1  0
 18 17  2  0
 18 15  1  0
 19 18  1  0
 20 19  2  0
 21 20  1  0
 22 17  1  0
 22 21  2  0
  7 23  1  0
 24 23  1  0
 25 24  1  0
 26 24  2  0
 27 25  1  0
 28 27  1  0
 29 28  2  0
 30 28  1  0
  1 31  1  0
  2 32  1  0
  3 33  1  0
  4 34  1  0
  7 35  1  1
 10 36  1  0
 11 37  1  0
 12 38  1  0
 16 39  1  0
 19 40  1  0
 20 41  1  0
 22 42  1  0
 23 43  1  0
 25 44  1  0
 25 45  1  0
 27 46  1  0
 27 47  1  0
 30 48  1  0
 30 49  1  0
M  END
