
     RDKit          3D

 49 51  0  0  0  0  0  0  0  0999 V2000
   37.3792   15.3757   28.5511 P   0  0  2  0  0  0  0  0  0  0  0  0
   36.0062   13.0337   29.2561 P   0  0  2  0  0  0  0  0  0  0  0  0
   36.9446   10.8398   30.9286 P   0  0  0  0  0  0  0  0  0  0  0  0
   38.9493   15.0967   26.5425 C   0  0  0  0  0  0  0  0  0  0  0  0
   38.0872   16.0156   27.1668 O   0  0  0  0  0  0  0  0  0  0  0  0
   39.6329   15.8513   25.3906 C   0  0  1  0  0  0  0  0  0  0  0  0
   38.6633   16.1812   24.4051 O   0  0  0  0  0  0  0  0  0  0  0  0
   40.2994   17.1549   25.8866 C   0  0  1  0  0  0  0  0  0  0  0  0
   41.5615   17.2986   25.2836 O   0  0  0  0  0  0  0  0  0  0  0  0
   39.3332   18.2134   25.3939 C   0  0  1  0  0  0  0  0  0  0  0  0
   39.9195   19.4743   25.1688 O   0  0  0  0  0  0  0  0  0  0  0  0
   38.7980   17.5562   24.1346 C   0  0  2  0  0  0  0  0  0  0  0  0
   36.1558   19.6877   20.2959 N   0  0  0  0  0  0  0  0  0  0  0  0
   36.3461   16.3787   29.0002 O   0  0  0  0  0  0  0  0  0  0  0  0
   35.5869   13.8034   30.4887 O   0  0  0  0  0  0  0  0  0  0  0  0
   35.7617    9.9356   30.6734 O   0  0  0  0  0  0  0  0  0  0  0  0
   37.4751   19.3081   20.3353 C   0  0  0  0  0  0  0  0  0  0  0  0
   38.2869   19.4650   19.1814 N   0  0  0  0  0  0  0  0  0  0  0  0
   38.5384   15.1208   29.7398 O   0  0  0  0  0  0  0  0  0  0  0  0
   34.6887   12.2948   28.5303 O   0  0  0  0  0  0  0  0  0  0  0  0
   36.7161   11.7593   32.3128 O   0  0  0  0  0  0  0  0  0  0  0  0
   38.0080   18.7666   21.4662 N   0  0  0  0  0  0  0  0  0  0  0  0
   37.2590   11.8674   29.5666 N   0  0  0  0  0  0  0  0  0  0  0  0
   36.6342   13.9736   28.0143 O   0  0  0  0  0  0  0  0  0  0  0  0
   38.3408    9.9275   31.0977 O   0  0  0  0  0  0  0  0  0  0  0  0
   37.1941   18.6275   22.5387 C   0  0  0  0  0  0  0  0  0  0  0  0
   35.8826   18.9752   22.5287 C   0  0  0  0  0  0  0  0  0  0  0  0
   35.3294   19.5347   21.3736 C   0  0  0  0  0  0  0  0  0  0  0  0
   34.1192   19.8882   21.3019 O   0  0  0  0  0  0  0  0  0  0  0  0
   35.3182   18.6892   23.7232 N   0  0  0  0  0  0  0  0  0  0  0  0
   36.3518   18.1605   24.4349 C   0  0  0  0  0  0  0  0  0  0  0  0
   37.5130   18.1185   23.7323 N   0  0  0  0  0  0  0  0  0  0  0  0
   38.3806   14.2347   26.1294 H   0  0  0  0  0  0  0  0  0  0  0  0
   39.7303   14.7330   27.2473 H   0  0  0  0  0  0  0  0  0  0  0  0
   40.3909   15.1757   24.9354 H   0  0  0  0  0  0  0  0  0  0  0  0
   40.3981   17.1886   26.9983 H   0  0  0  0  0  0  0  0  0  0  0  0
   41.5270   16.8027   24.4242 H   0  0  0  0  0  0  0  0  0  0  0  0
   38.5215   18.3371   26.1427 H   0  0  0  0  0  0  0  0  0  0  0  0
   40.5318   19.4055   24.3910 H   0  0  0  0  0  0  0  0  0  0  0  0
   39.5329   17.6699   23.3043 H   0  0  0  0  0  0  0  0  0  0  0  0
   35.7683   20.0998   19.4167 H   0  0  0  0  0  0  0  0  0  0  0  0
   38.8624   20.3254   19.0444 H   0  0  0  0  0  0  0  0  0  0  0  0
   38.3178   18.7169   18.4536 H   0  0  0  0  0  0  0  0  0  0  0  0
   38.9518   14.2500   29.5136 H   0  0  0  0  0  0  0  0  0  0  0  0
   34.8874   12.3139   27.5604 H   0  0  0  0  0  0  0  0  0  0  0  0
   36.6455   11.0979   33.0466 H   0  0  0  0  0  0  0  0  0  0  0  0
   37.3249   11.2539   28.7237 H   0  0  0  0  0  0  0  0  0  0  0  0
   38.6617   10.1229   32.0142 H   0  0  0  0  0  0  0  0  0  0  0  0
   36.2462   17.7924   25.4473 H   0  0  0  0  0  0  0  0  0  0  0  0
  1  5  1  6
  5  4  1  0
  6  4  1  0
  7  6  1  0
  8  6  1  0
  8  9  1  0
 10  8  1  0
 10 11  1  0
 12  7  1  0
 12 10  1  0
 14  1  2  0
 15  2  2  0
 16  3  2  0
 17 13  1  0
 18 17  1  0
 19  1  1  0
  2 20  1  6
 21  3  1  0
 22 17  2  0
 23  3  1  0
 23  2  1  0
 24  2  1  0
 24  1  1  0
 25  3  1  0
 26 22  1  0
 27 26  2  0
 28 13  1  0
 28 27  1  0
 29 28  2  0
 30 27  1  0
 31 30  2  0
 32 31  1  0
 32 26  1  0
 12 32  1  0
  4 33  1  0
  4 34  1  0
  6 35  1  6
  8 36  1  1
  9 37  1  0
 10 38  1  1
 11 39  1  0
 12 40  1  6
 13 41  1  0
 18 42  1  0
 18 43  1  0
 19 44  1  0
 20 45  1  0
 21 46  1  0
 23 47  1  0
 25 48  1  0
 31 49  1  0
M  END
