
     RDKit          3D

 17 17  0  0  0  0  0  0  0  0999 V2000
   25.1873   40.2516   71.3857 N   0  0  0  0  0  0  0  0  0  0  0  0
   25.6443   38.9147   71.3954 C   0  0  0  0  0  0  0  0  0  0  0  0
   24.8242   37.9706   71.4749 O   0  0  0  0  0  0  0  0  0  0  0  0
   27.0284   38.6499   71.2698 N   0  0  0  0  0  0  0  0  0  0  0  0
   27.8925   39.6706   70.7875 C   0  0  0  0  0  0  0  0  0  0  0  0
   29.0660   39.3736   70.4534 O   0  0  0  0  0  0  0  0  0  0  0  0
   27.3876   41.0740   70.5983 C   0  0  0  0  0  0  0  0  0  0  0  0
   26.1497   41.3458   71.4780 C   0  0  1  0  0  0  0  0  0  0  0  0
   25.4970   42.6256   71.0754 C   0  0  0  0  0  0  0  0  0  0  0  0
   25.6264   43.6696   71.7712 O   0  0  0  0  0  0  0  0  0  0  0  0
   24.7431   42.6536   69.9199 O   0  0  0  0  0  0  0  0  0  0  0  0
   24.1757   40.4154   71.5955 H   0  0  0  0  0  0  0  0  0  0  0  0
   27.3834   37.6726   71.3746 H   0  0  0  0  0  0  0  0  0  0  0  0
   28.1933   41.7969   70.8526 H   0  0  0  0  0  0  0  0  0  0  0  0
   27.1249   41.2027   69.5254 H   0  0  0  0  0  0  0  0  0  0  0  0
   26.4760   41.4382   72.5374 H   0  0  0  0  0  0  0  0  0  0  0  0
   24.4026   41.7968   69.5002 H   0  0  0  0  0  0  0  0  0  0  0  0
  2  1  1  0
  3  2  2  0
  4  2  1  0
  5  4  1  0
  6  5  2  0
  7  5  1  0
  8  1  1  0
  8  7  1  0
  8  9  1  0
 10  9  2  0
 11  9  1  0
  1 12  1  0
  4 13  1  0
  7 14  1  0
  7 15  1  0
  8 16  1  1
 11 17  1  0
M  END
