
     RDKit          3D

 40 39  0  0  0  0  0  0  0  0999 V2000
   -1.2577   30.5417   64.8227 C   0  0  0  0  0  0  0  0  0  0  0  0
   -0.5710   29.1887   64.9733 C   0  0  0  0  0  0  0  0  0  0  0  0
    0.7568   29.1634   64.2160 C   0  0  0  0  0  0  0  0  0  0  0  0
    1.4566   27.8149   64.3907 C   0  0  0  0  0  0  0  0  0  0  0  0
    2.6895   27.7401   63.4900 C   0  0  0  0  0  0  0  0  0  0  0  0
    3.2350   26.3150   63.4356 C   0  0  0  0  0  0  0  0  0  0  0  0
    4.3481   26.2040   62.3913 C   0  0  0  0  0  0  0  0  0  0  0  0
    4.6382   24.7333   62.0913 C   0  0  0  0  0  0  0  0  0  0  0  0
    6.1297   24.3470   62.1797 C   0  0  0  0  0  0  0  0  0  0  0  0
    5.5597   22.4011   60.3537 O   0  0  0  0  0  0  0  0  0  0  0  0
    7.3754   24.4737   59.5937 O   0  0  0  0  0  0  0  0  0  0  0  0
    6.5739   24.5198   63.5033 O   0  0  0  0  0  0  0  0  0  0  0  0
    7.8891   22.1817   61.5610 O   0  0  0  0  0  0  0  0  0  0  0  0
    5.5364   21.6385   62.8578 O   0  0  0  0  0  0  0  0  0  0  0  0
    6.5250   26.8197   60.7309 O   0  0  0  0  0  0  0  0  0  0  0  0
    8.5644   25.5172   61.6631 O   0  0  0  0  0  0  0  0  0  0  0  0
    6.2621   22.6011   61.6759 P   0  0  0  0  0  0  0  0  0  0  0  0
    7.1986   25.3091   61.0402 P   0  0  0  0  0  0  0  0  0  0  0  0
   -2.2178   30.5348   65.3806 H   0  0  0  0  0  0  0  0  0  0  0  0
   -1.4712   30.7501   63.7525 H   0  0  0  0  0  0  0  0  0  0  0  0
   -0.6150   31.3495   65.2332 H   0  0  0  0  0  0  0  0  0  0  0  0
   -1.2458   28.3974   64.5796 H   0  0  0  0  0  0  0  0  0  0  0  0
   -0.3912   28.9947   66.0534 H   0  0  0  0  0  0  0  0  0  0  0  0
    0.5542   29.3468   63.1373 H   0  0  0  0  0  0  0  0  0  0  0  0
    1.4209   29.9721   64.5940 H   0  0  0  0  0  0  0  0  0  0  0  0
    1.7582   27.6773   65.4524 H   0  0  0  0  0  0  0  0  0  0  0  0
    0.7453   27.0043   64.1159 H   0  0  0  0  0  0  0  0  0  0  0  0
    2.4085   28.0586   62.4612 H   0  0  0  0  0  0  0  0  0  0  0  0
    3.4749   28.4300   63.8700 H   0  0  0  0  0  0  0  0  0  0  0  0
    2.4056   25.6239   63.1646 H   0  0  0  0  0  0  0  0  0  0  0  0
    3.6256   26.0211   64.4347 H   0  0  0  0  0  0  0  0  0  0  0  0
    4.0163   26.7100   61.4631 H   0  0  0  0  0  0  0  0  0  0  0  0
    5.2646   26.7092   62.7666 H   0  0  0  0  0  0  0  0  0  0  0  0
    4.2622   24.5048   61.0695 H   0  0  0  0  0  0  0  0  0  0  0  0
    4.0603   24.1102   62.8097 H   0  0  0  0  0  0  0  0  0  0  0  0
    6.5497   24.6643   59.0822 H   0  0  0  0  0  0  0  0  0  0  0  0
    7.5213   24.2275   63.5471 H   0  0  0  0  0  0  0  0  0  0  0  0
    7.8861   21.2186   61.3302 H   0  0  0  0  0  0  0  0  0  0  0  0
    6.2504   21.4608   63.5203 H   0  0  0  0  0  0  0  0  0  0  0  0
    6.1786   27.1299   61.6053 H   0  0  0  0  0  0  0  0  0  0  0  0
  2  1  1  0
  3  2  1  0
  4  3  1  0
  5  4  1  0
  6  5  1  0
  7  6  1  0
  8  7  1  0
  9  8  1  0
  9 12  1  0
 17 13  1  0
 17 14  1  0
 17 10  2  0
 17  9  1  0
 18 16  2  0
 18 11  1  0
 18 15  1  0
 18  9  1  0
  1 19  1  0
  1 20  1  0
  1 21  1  0
  2 22  1  0
  2 23  1  0
  3 24  1  0
  3 25  1  0
  4 26  1  0
  4 27  1  0
  5 28  1  0
  5 29  1  0
  6 30  1  0
  6 31  1  0
  7 32  1  0
  7 33  1  0
  8 34  1  0
  8 35  1  0
 11 36  1  0
 12 37  1  0
 13 38  1  0
 14 39  1  0
 15 40  1  0
M  END
