
     RDKit          3D

 40 39  0  0  0  0  0  0  0  0999 V2000
  -18.2333   26.1674   65.3521 C   0  0  0  0  0  0  0  0  0  0  0  0
  -18.7645   27.2064   64.3691 C   0  0  0  0  0  0  0  0  0  0  0  0
  -20.2722   27.0400   64.1688 C   0  0  0  0  0  0  0  0  0  0  0  0
  -20.8686   28.2301   63.4116 C   0  0  0  0  0  0  0  0  0  0  0  0
  -22.3249   27.9421   63.0273 C   0  0  0  0  0  0  0  0  0  0  0  0
  -22.7530   28.7650   61.8113 C   0  0  0  0  0  0  0  0  0  0  0  0
  -24.0533   28.2152   61.2098 C   0  0  0  0  0  0  0  0  0  0  0  0
  -24.3760   28.9571   59.9129 C   0  0  0  0  0  0  0  0  0  0  0  0
  -25.7163   28.5633   59.2460 C   0  0  0  0  0  0  0  0  0  0  0  0
  -24.8088   30.6316   57.6542 O   0  0  0  0  0  0  0  0  0  0  0  0
  -26.0045   25.8340   60.1066 O   0  0  0  0  0  0  0  0  0  0  0  0
  -26.8033   28.8134   60.1035 O   0  0  0  0  0  0  0  0  0  0  0  0
  -27.4004   30.2484   57.6834 O   0  0  0  0  0  0  0  0  0  0  0  0
  -25.7293   28.5305   56.3861 O   0  0  0  0  0  0  0  0  0  0  0  0
  -24.3051   26.4073   58.0137 O   0  0  0  0  0  0  0  0  0  0  0  0
  -26.9002   26.5888   57.7780 O   0  0  0  0  0  0  0  0  0  0  0  0
  -25.8651   29.5517   57.7168 P   0  0  0  0  0  0  0  0  0  0  0  0
  -25.7607   26.8065   58.7529 P   0  0  0  0  0  0  0  0  0  0  0  0
  -18.4116   25.1413   64.9654 H   0  0  0  0  0  0  0  0  0  0  0  0
  -18.7300   26.2797   66.3394 H   0  0  0  0  0  0  0  0  0  0  0  0
  -17.1404   26.3096   65.4874 H   0  0  0  0  0  0  0  0  0  0  0  0
  -18.2371   27.0831   63.3980 H   0  0  0  0  0  0  0  0  0  0  0  0
  -18.5488   28.2236   64.7629 H   0  0  0  0  0  0  0  0  0  0  0  0
  -20.7748   26.9459   65.1568 H   0  0  0  0  0  0  0  0  0  0  0  0
  -20.4486   26.1035   63.5940 H   0  0  0  0  0  0  0  0  0  0  0  0
  -20.2669   28.4006   62.4915 H   0  0  0  0  0  0  0  0  0  0  0  0
  -20.8192   29.1463   64.0399 H   0  0  0  0  0  0  0  0  0  0  0  0
  -22.9934   28.1642   63.8878 H   0  0  0  0  0  0  0  0  0  0  0  0
  -22.4271   26.8618   62.7806 H   0  0  0  0  0  0  0  0  0  0  0  0
  -22.8899   29.8266   62.1135 H   0  0  0  0  0  0  0  0  0  0  0  0
  -21.9579   28.7209   61.0340 H   0  0  0  0  0  0  0  0  0  0  0  0
  -24.8822   28.3434   61.9394 H   0  0  0  0  0  0  0  0  0  0  0  0
  -23.9284   27.1338   60.9911 H   0  0  0  0  0  0  0  0  0  0  0  0
  -24.3944   30.0469   60.1373 H   0  0  0  0  0  0  0  0  0  0  0  0
  -23.5440   28.7846   59.1951 H   0  0  0  0  0  0  0  0  0  0  0  0
  -25.9751   24.9060   59.7620 H   0  0  0  0  0  0  0  0  0  0  0  0
  -27.5465   28.2154   59.8285 H   0  0  0  0  0  0  0  0  0  0  0  0
  -27.9885   29.5604   57.2817 H   0  0  0  0  0  0  0  0  0  0  0  0
  -25.8722   29.1170   55.6009 H   0  0  0  0  0  0  0  0  0  0  0  0
  -24.3964   25.4514   57.7715 H   0  0  0  0  0  0  0  0  0  0  0  0
  2  1  1  0
  3  2  1  0
  4  3  1  0
  5  4  1  0
  6  5  1  0
  7  6  1  0
  8  7  1  0
  9  8  1  0
  9 12  1  0
 17 14  1  0
 17 13  1  0
 17 10  2  0
 17  9  1  0
 18 16  2  0
 18 15  1  0
 18 11  1  0
 18  9  1  0
  1 19  1  0
  1 20  1  0
  1 21  1  0
  2 22  1  0
  2 23  1  0
  3 24  1  0
  3 25  1  0
  4 26  1  0
  4 27  1  0
  5 28  1  0
  5 29  1  0
  6 30  1  0
  6 31  1  0
  7 32  1  0
  7 33  1  0
  8 34  1  0
  8 35  1  0
 11 36  1  0
 12 37  1  0
 13 38  1  0
 14 39  1  0
 15 40  1  0
M  END
