
     RDKit          3D

 32 33  0  0  0  0  0  0  0  0999 V2000
    7.5118   11.7890   43.0010 N   0  0  0  0  0  0  0  0  0  0  0  0
    7.4584   12.1610   41.6978 C   0  0  0  0  0  0  0  0  0  0  0  0
    6.5504   11.5137   40.8174 N   0  0  0  0  0  0  0  0  0  0  0  0
    8.2753   13.1476   41.2337 N   0  0  0  0  0  0  0  0  0  0  0  0
    9.1599   13.7773   42.0540 C   0  0  0  0  0  0  0  0  0  0  0  0
    9.2309   13.3988   43.4002 C   0  0  0  0  0  0  0  0  0  0  0  0
    9.9098   14.6810   41.5906 O   0  0  0  0  0  0  0  0  0  0  0  0
   10.1693   13.9889   44.3065 N   0  0  0  0  0  0  0  0  0  0  0  0
   10.5530   13.2377   45.5047 C   0  0  2  0  0  0  0  0  0  0  0  0
    9.2938   12.6446   46.1871 C   0  0  0  0  0  0  0  0  0  0  0  0
    8.3769   12.3857   43.8565 C   0  0  0  0  0  0  0  0  0  0  0  0
    8.4324   11.9665   45.2180 N   0  0  0  0  0  0  0  0  0  0  0  0
   11.4257   14.1200   46.4386 C   0  0  1  0  0  0  0  0  0  0  0  0
   11.3671   13.6559   47.7677 O   0  0  0  0  0  0  0  0  0  0  0  0
   12.8883   14.1873   45.9600 C   0  0  1  0  0  0  0  0  0  0  0  0
   13.3379   12.8802   45.7088 O   0  0  0  0  0  0  0  0  0  0  0  0
   13.0193   15.0239   44.6865 C   0  0  0  0  0  0  0  0  0  0  0  0
    6.7802   11.3928   39.8061 H   0  0  0  0  0  0  0  0  0  0  0  0
    5.6389   11.1503   41.1742 H   0  0  0  0  0  0  0  0  0  0  0  0
    8.2256   13.4260   40.2272 H   0  0  0  0  0  0  0  0  0  0  0  0
   10.6679   14.8707   44.0476 H   0  0  0  0  0  0  0  0  0  0  0  0
   11.1730   12.3781   45.1646 H   0  0  0  0  0  0  0  0  0  0  0  0
    9.5897   11.9110   46.9663 H   0  0  0  0  0  0  0  0  0  0  0  0
    8.7131   13.4582   46.6721 H   0  0  0  0  0  0  0  0  0  0  0  0
    7.7736   11.2288   45.5551 H   0  0  0  0  0  0  0  0  0  0  0  0
   10.9977   15.1512   46.3812 H   0  0  0  0  0  0  0  0  0  0  0  0
   12.0128   14.1920   48.2982 H   0  0  0  0  0  0  0  0  0  0  0  0
   13.5124   14.6666   46.7496 H   0  0  0  0  0  0  0  0  0  0  0  0
   12.5531   12.2811   45.8142 H   0  0  0  0  0  0  0  0  0  0  0  0
   12.3853   14.6040   43.8764 H   0  0  0  0  0  0  0  0  0  0  0  0
   14.0759   15.0252   44.3442 H   0  0  0  0  0  0  0  0  0  0  0  0
   12.7196   16.0759   44.8776 H   0  0  0  0  0  0  0  0  0  0  0  0
  2  1  2  0
  3  2  1  0
  4  2  1  0
  5  4  1  0
  6  5  1  0
  7  5  2  0
  8  6  1  0
  9  8  1  0
  9 10  1  0
 11  6  2  0
 11  1  1  0
 12 11  1  0
 12 10  1  0
 13  9  1  0
 13 14  1  0
 15 13  1  0
 16 15  1  0
 15 17  1  0
  3 18  1  0
  3 19  1  0
  4 20  1  0
  8 21  1  0
  9 22  1  6
 10 23  1  0
 10 24  1  0
 12 25  1  0
 13 26  1  1
 14 27  1  0
 15 28  1  1
 16 29  1  0
 17 30  1  0
 17 31  1  0
 17 32  1  0
M  END
