
     RDKit          3D

 32 33  0  0  0  0  0  0  0  0999 V2000
    8.3227   11.9229   42.1744 N   0  0  0  0  0  0  0  0  0  0  0  0
    8.2693   12.2948   40.8713 C   0  0  0  0  0  0  0  0  0  0  0  0
    7.3613   11.6475   39.9908 N   0  0  0  0  0  0  0  0  0  0  0  0
    9.0862   13.2814   40.4072 N   0  0  0  0  0  0  0  0  0  0  0  0
    9.9708   13.9111   41.2274 C   0  0  0  0  0  0  0  0  0  0  0  0
   10.0419   13.5327   42.5736 C   0  0  0  0  0  0  0  0  0  0  0  0
   10.7207   14.8148   40.7640 O   0  0  0  0  0  0  0  0  0  0  0  0
   10.9802   14.1227   43.4799 N   0  0  0  0  0  0  0  0  0  0  0  0
   11.3639   13.3715   44.6781 C   0  0  2  0  0  0  0  0  0  0  0  0
   10.1047   12.7784   45.3606 C   0  0  0  0  0  0  0  0  0  0  0  0
    9.1878   12.5195   43.0299 C   0  0  0  0  0  0  0  0  0  0  0  0
    9.2433   12.1003   44.3914 N   0  0  0  0  0  0  0  0  0  0  0  0
   12.2366   14.2539   45.6120 C   0  0  1  0  0  0  0  0  0  0  0  0
   11.5296   15.4005   46.0253 O   0  0  0  0  0  0  0  0  0  0  0  0
   12.7407   13.4667   46.8364 C   0  0  1  0  0  0  0  0  0  0  0  0
   12.2262   12.1609   46.7722 O   0  0  0  0  0  0  0  0  0  0  0  0
   14.2686   13.4104   46.8713 C   0  0  0  0  0  0  0  0  0  0  0  0
    7.1505   12.0486   39.0501 H   0  0  0  0  0  0  0  0  0  0  0  0
    6.8927   10.7593   40.2767 H   0  0  0  0  0  0  0  0  0  0  0  0
    9.0365   13.5598   39.4006 H   0  0  0  0  0  0  0  0  0  0  0  0
   11.4788   15.0046   43.2210 H   0  0  0  0  0  0  0  0  0  0  0  0
   11.9839   12.5119   44.3380 H   0  0  0  0  0  0  0  0  0  0  0  0
   10.4006   12.0448   46.1397 H   0  0  0  0  0  0  0  0  0  0  0  0
    9.5240   13.5920   45.8455 H   0  0  0  0  0  0  0  0  0  0  0  0
    8.5845   11.3627   44.7285 H   0  0  0  0  0  0  0  0  0  0  0  0
   13.1273   14.5583   45.0089 H   0  0  0  0  0  0  0  0  0  0  0  0
   10.6087   15.3287   45.6615 H   0  0  0  0  0  0  0  0  0  0  0  0
   12.3958   13.9736   47.7675 H   0  0  0  0  0  0  0  0  0  0  0  0
   11.3106   12.1936   47.1550 H   0  0  0  0  0  0  0  0  0  0  0  0
   14.6635   12.9424   45.9442 H   0  0  0  0  0  0  0  0  0  0  0  0
   14.6030   12.8074   47.7421 H   0  0  0  0  0  0  0  0  0  0  0  0
   14.6948   14.4303   46.9767 H   0  0  0  0  0  0  0  0  0  0  0  0
  2  1  2  0
  3  2  1  0
  4  2  1  0
  5  4  1  0
  6  5  1  0
  7  5  2  0
  8  6  1  0
  9  8  1  0
  9 10  1  0
 11  6  2  0
 11  1  1  0
 12 11  1  0
 12 10  1  0
 13  9  1  0
 13 14  1  0
 15 13  1  0
 16 15  1  0
 15 17  1  0
  3 18  1  0
  3 19  1  0
  4 20  1  0
  8 21  1  0
  9 22  1  6
 10 23  1  0
 10 24  1  0
 12 25  1  0
 13 26  1  6
 14 27  1  0
 15 28  1  1
 16 29  1  0
 17 30  1  0
 17 31  1  0
 17 32  1  0
M  END
