
     RDKit          3D

 41 42  0  0  0  0  0  0  0  0999 V2000
   -2.4398   49.6462   93.1009 P   0  0  1  0  0  0  0  0  0  0  0  0
   -1.3828   50.0561   90.4629 P   0  0  0  0  0  0  0  0  0  0  0  0
   -4.8722   48.8562   93.3294 C   0  0  0  0  0  0  0  0  0  0  0  0
   -3.5757   48.6164   93.8246 O   0  0  0  0  0  0  0  0  0  0  0  0
   -5.8292   47.7928   93.9011 C   0  0  1  0  0  0  0  0  0  0  0  0
   -5.5937   46.5343   93.3212 O   0  0  0  0  0  0  0  0  0  0  0  0
   -5.6929   47.5965   95.4119 C   0  0  1  0  0  0  0  0  0  0  0  0
   -6.4971   48.4986   96.1281 O   0  0  0  0  0  0  0  0  0  0  0  0
   -6.0914   46.1426   95.6207 C   0  0  0  0  0  0  0  0  0  0  0  0
   -6.1724   45.5845   94.1968 C   0  0  2  0  0  0  0  0  0  0  0  0
   -5.5320   44.2536   94.0505 N   0  0  0  0  0  0  0  0  0  0  0  0
   -2.7562   51.0843   93.4446 O   0  0  0  0  0  0  0  0  0  0  0  0
   -1.9192   49.9145   89.0570 O   0  0  0  0  0  0  0  0  0  0  0  0
   -6.1317   43.1433   94.5907 C   0  0  0  0  0  0  0  0  0  0  0  0
   -7.0844   43.2617   95.4105 O   0  0  0  0  0  0  0  0  0  0  0  0
   -0.9494   49.1949   93.7238 O   0  0  0  0  0  0  0  0  0  0  0  0
    0.0430   49.1765   90.5919 O   0  0  0  0  0  0  0  0  0  0  0  0
   -5.7194   41.8975   94.2261 N   0  0  0  0  0  0  0  0  0  0  0  0
   -2.6022   49.4031   91.4342 O   0  0  0  0  0  0  0  0  0  0  0  0
   -1.0861   51.6783   90.7774 O   0  0  0  0  0  0  0  0  0  0  0  0
   -4.7034   41.7107   93.3418 C   0  0  0  0  0  0  0  0  0  0  0  0
   -4.3795   40.5388   93.0043 O   0  0  0  0  0  0  0  0  0  0  0  0
   -4.0235   42.8219   92.8245 C   0  0  0  0  0  0  0  0  0  0  0  0
   -2.9074   42.6738   91.8259 C   0  0  0  0  0  0  0  0  0  0  0  0
   -4.4599   44.0913   93.2085 C   0  0  0  0  0  0  0  0  0  0  0  0
   -5.2212   49.8622   93.6528 H   0  0  0  0  0  0  0  0  0  0  0  0
   -4.9073   48.7930   92.2192 H   0  0  0  0  0  0  0  0  0  0  0  0
   -6.8686   48.1027   93.6421 H   0  0  0  0  0  0  0  0  0  0  0  0
   -4.6427   47.7167   95.7534 H   0  0  0  0  0  0  0  0  0  0  0  0
   -7.4434   48.3403   95.8714 H   0  0  0  0  0  0  0  0  0  0  0  0
   -7.0725   46.0445   96.1354 H   0  0  0  0  0  0  0  0  0  0  0  0
   -5.3152   45.6125   96.2160 H   0  0  0  0  0  0  0  0  0  0  0  0
   -7.2469   45.4867   93.9143 H   0  0  0  0  0  0  0  0  0  0  0  0
   -0.4558   50.0456   93.8403 H   0  0  0  0  0  0  0  0  0  0  0  0
   -0.2401   48.2284   90.5483 H   0  0  0  0  0  0  0  0  0  0  0  0
   -6.2052   41.0625   94.6271 H   0  0  0  0  0  0  0  0  0  0  0  0
   -1.3383   51.8021   91.7272 H   0  0  0  0  0  0  0  0  0  0  0  0
   -3.0839   43.3059   90.9295 H   0  0  0  0  0  0  0  0  0  0  0  0
   -2.8340   41.6125   91.5089 H   0  0  0  0  0  0  0  0  0  0  0  0
   -1.9419   42.9866   92.2766 H   0  0  0  0  0  0  0  0  0  0  0  0
   -3.9562   44.9487   92.7801 H   0  0  0  0  0  0  0  0  0  0  0  0
  4  3  1  0
  1  4  1  1
  5  3  1  0
  6  5  1  0
  7  5  1  0
  7  8  1  0
  9  7  1  0
 10  9  1  0
 10  6  1  0
 10 11  1  0
 12  1  2  0
 13  2  2  0
 14 11  1  0
 15 14  2  0
 16  1  1  0
 17  2  1  0
 18 14  1  0
 19  2  1  0
 19  1  1  0
 20  2  1  0
 21 18  1  0
 22 21  2  0
 23 21  1  0
 24 23  1  0
 25 11  1  0
 25 23  2  0
  3 26  1  0
  3 27  1  0
  5 28  1  1
  7 29  1  1
  8 30  1  0
  9 31  1  0
  9 32  1  0
 10 33  1  6
 16 34  1  0
 17 35  1  0
 18 36  1  0
 20 37  1  0
 24 38  1  0
 24 39  1  0
 24 40  1  0
 25 41  1  0
M  END
