
     RDKit          3D

 40 41  0  0  0  0  0  0  0  0999 V2000
   29.3051   66.1835    7.1921 C   0  0  0  0  0  0  0  0  0  0  0  0
   30.5831   66.2980    7.8894 N   0  0  0  0  0  0  0  0  0  0  0  0
   31.7163   66.9293    7.3387 C   0  0  0  0  0  0  0  0  0  0  0  0
   31.6928   67.5435    6.2388 O   0  0  0  0  0  0  0  0  0  0  0  0
   32.9245   66.7661    8.1720 C   0  0  2  0  0  0  0  0  0  0  0  0
   33.8299   65.9182    7.5095 O   0  0  0  0  0  0  0  0  0  0  0  0
   32.3520   66.1669    9.4920 C   0  0  2  0  0  0  0  0  0  0  0  0
   33.1669   65.1426   10.0042 O   0  0  0  0  0  0  0  0  0  0  0  0
   30.9039   65.6744    9.1702 C   0  0  1  0  0  0  0  0  0  0  0  0
   29.8434   66.1066   10.2149 C   0  0  0  0  0  0  0  0  0  0  0  0
   28.7990   65.0915   10.4436 N   0  0  0  0  0  0  0  0  0  0  0  0
   27.6545   65.6548   11.2084 C   0  0  1  0  0  0  0  0  0  0  0  0
   26.6136   64.5653   11.5385 C   0  0  0  0  0  0  0  0  0  0  0  0
   25.3903   64.8348   10.9204 O   0  0  0  0  0  0  0  0  0  0  0  0
   28.0989   66.2700   12.5227 C   0  0  0  0  0  0  0  0  0  0  0  0
   27.5128   65.8268   13.7183 C   0  0  0  0  0  0  0  0  0  0  0  0
   27.8654   66.4022   14.9342 C   0  0  0  0  0  0  0  0  0  0  0  0
   28.8349   67.4015   14.9869 C   0  0  0  0  0  0  0  0  0  0  0  0
   29.4313   67.8481   13.8062 C   0  0  0  0  0  0  0  0  0  0  0  0
   29.0678   67.2874   12.5748 C   0  0  0  0  0  0  0  0  0  0  0  0
   29.4793   65.9248    6.1263 H   0  0  0  0  0  0  0  0  0  0  0  0
   28.7616   67.1494    7.2494 H   0  0  0  0  0  0  0  0  0  0  0  0
   28.6829   65.3761    7.6305 H   0  0  0  0  0  0  0  0  0  0  0  0
   33.3863   67.7637    8.3564 H   0  0  0  0  0  0  0  0  0  0  0  0
   34.6519   66.4529    7.3565 H   0  0  0  0  0  0  0  0  0  0  0  0
   32.3086   66.9980   10.2349 H   0  0  0  0  0  0  0  0  0  0  0  0
   34.0717   65.2808    9.6221 H   0  0  0  0  0  0  0  0  0  0  0  0
   30.8867   64.5689    9.0473 H   0  0  0  0  0  0  0  0  0  0  0  0
   29.3514   67.0393    9.8692 H   0  0  0  0  0  0  0  0  0  0  0  0
   30.3644   66.3508   11.1677 H   0  0  0  0  0  0  0  0  0  0  0  0
   29.2228   64.2969   10.9756 H   0  0  0  0  0  0  0  0  0  0  0  0
   27.1475   66.4221   10.5808 H   0  0  0  0  0  0  0  0  0  0  0  0
   26.4629   64.5272   12.6420 H   0  0  0  0  0  0  0  0  0  0  0  0
   26.9660   63.5658   11.2013 H   0  0  0  0  0  0  0  0  0  0  0  0
   24.7722   64.1093   11.1979 H   0  0  0  0  0  0  0  0  0  0  0  0
   26.7729   65.0378   13.7238 H   0  0  0  0  0  0  0  0  0  0  0  0
   27.3994   66.0573   15.8483 H   0  0  0  0  0  0  0  0  0  0  0  0
   29.1166   67.8367   15.9370 H   0  0  0  0  0  0  0  0  0  0  0  0
   30.1787   68.6302   13.8425 H   0  0  0  0  0  0  0  0  0  0  0  0
   29.5363   67.6468   11.6674 H   0  0  0  0  0  0  0  0  0  0  0  0
  2  1  1  0
  3  2  1  0
  4  3  2  0
  5  3  1  0
  5  6  1  0
  7  5  1  0
  7  8  1  0
  9  7  1  0
  9  2  1  0
  9 10  1  0
 11 10  1  0
 12 11  1  0
 12 13  1  0
 14 13  1  0
 15 12  1  0
 16 15  2  0
 17 16  1  0
 18 17  2  0
 19 18  1  0
 20 19  2  0
 20 15  1  0
  1 21  1  0
  1 22  1  0
  1 23  1  0
  5 24  1  1
  6 25  1  0
  7 26  1  1
  8 27  1  0
  9 28  1  6
 10 29  1  0
 10 30  1  0
 11 31  1  0
 12 32  1  6
 13 33  1  0
 13 34  1  0
 14 35  1  0
 16 36  1  0
 17 37  1  0
 18 38  1  0
 19 39  1  0
 20 40  1  0
M  END
