
     RDKit          3D

 35 36  0  0  0  0  0  0  0  0999 V2000
   15.1371   74.0800   28.0442 P   0  0  0  0  0  0  0  0  0  0  0  0
   14.4488   74.2673   25.5787 C   0  0  0  0  0  0  0  0  0  0  0  0
   14.4734   73.3705   26.6590 O   0  0  0  0  0  0  0  0  0  0  0  0
   14.7948   75.6815   26.0958 C   0  0  1  0  0  0  0  0  0  0  0  0
   14.9237   76.5646   24.9973 O   0  0  0  0  0  0  0  0  0  0  0  0
   13.7216   76.2316   27.0425 C   0  0  0  0  0  0  0  0  0  0  0  0
   12.9818   77.2161   26.1892 C   0  0  0  0  0  0  0  0  0  0  0  0
   14.0704   77.6589   25.2295 C   0  0  2  0  0  0  0  0  0  0  0  0
   13.5290   78.1608   23.9535 N   0  0  0  0  0  0  0  0  0  0  0  0
   14.0872   79.2554   23.3401 C   0  0  0  0  0  0  0  0  0  0  0  0
   15.0189   79.8997   23.9035 O   0  0  0  0  0  0  0  0  0  0  0  0
   13.6399   79.6490   22.1128 N   0  0  0  0  0  0  0  0  0  0  0  0
   12.6488   78.9662   21.4662 C   0  0  0  0  0  0  0  0  0  0  0  0
   12.2712   79.3404   20.3166 O   0  0  0  0  0  0  0  0  0  0  0  0
   12.0581   77.8461   22.0754 C   0  0  0  0  0  0  0  0  0  0  0  0
   10.9713   77.0580   21.3872 C   0  0  0  0  0  0  0  0  0  0  0  0
   12.5455   77.4481   23.3212 C   0  0  0  0  0  0  0  0  0  0  0  0
   14.4281   75.3671   28.3852 O   0  0  0  0  0  0  0  0  0  0  0  0
   14.8438   72.9723   29.2668 O   0  0  0  0  0  0  0  0  0  0  0  0
   16.7869   74.3586   27.8377 O   0  0  0  0  0  0  0  0  0  0  0  0
   15.2095   73.9708   24.8226 H   0  0  0  0  0  0  0  0  0  0  0  0
   13.4435   74.2904   25.0989 H   0  0  0  0  0  0  0  0  0  0  0  0
   15.7700   75.6340   26.6293 H   0  0  0  0  0  0  0  0  0  0  0  0
   13.0390   75.4497   27.4423 H   0  0  0  0  0  0  0  0  0  0  0  0
   14.2050   76.7605   27.8942 H   0  0  0  0  0  0  0  0  0  0  0  0
   12.5940   78.0682   26.7889 H   0  0  0  0  0  0  0  0  0  0  0  0
   12.1368   76.7062   25.6809 H   0  0  0  0  0  0  0  0  0  0  0  0
   14.6700   78.4380   25.7525 H   0  0  0  0  0  0  0  0  0  0  0  0
   14.0726   80.4821   21.6521 H   0  0  0  0  0  0  0  0  0  0  0  0
   10.9902   76.0017   21.7290 H   0  0  0  0  0  0  0  0  0  0  0  0
   11.1067   77.0636   20.2846 H   0  0  0  0  0  0  0  0  0  0  0  0
    9.9830   77.5019   21.6289 H   0  0  0  0  0  0  0  0  0  0  0  0
   12.1506   76.5442   23.7701 H   0  0  0  0  0  0  0  0  0  0  0  0
   15.0146   73.4683   30.1071 H   0  0  0  0  0  0  0  0  0  0  0  0
   17.2302   73.6146   28.3180 H   0  0  0  0  0  0  0  0  0  0  0  0
  3  2  1  0
  3  1  1  0
  4  2  1  0
  5  4  1  0
  6  4  1  0
  7  6  1  0
  8  5  1  0
  8  7  1  0
  8  9  1  0
 10  9  1  0
 11 10  2  0
 12 10  1  0
 13 12  1  0
 14 13  2  0
 15 13  1  0
 16 15  1  0
 17 15  2  0
 17  9  1  0
 18  1  2  0
 19  1  1  0
 20  1  1  0
  2 21  1  0
  2 22  1  0
  4 23  1  1
  6 24  1  0
  6 25  1  0
  7 26  1  0
  7 27  1  0
  8 28  1  1
 12 29  1  0
 16 30  1  0
 16 31  1  0
 16 32  1  0
 17 33  1  0
 19 34  1  0
 20 35  1  0
M  END
