
     RDKit          3D

 32 33  0  0  0  0  0  0  0  0999 V2000
   13.2053    2.3778   49.1718 N   0  0  0  0  0  0  0  0  0  0  0  0
   13.2790    1.9432   50.4550 C   0  0  0  0  0  0  0  0  0  0  0  0
   12.1706    1.2690   51.0341 N   0  0  0  0  0  0  0  0  0  0  0  0
   14.4092    2.1569   51.1863 N   0  0  0  0  0  0  0  0  0  0  0  0
   15.4818    2.8064   50.6549 C   0  0  0  0  0  0  0  0  0  0  0  0
   15.4170    3.2636   49.3333 C   0  0  0  0  0  0  0  0  0  0  0  0
   16.5123    2.9979   51.3589 O   0  0  0  0  0  0  0  0  0  0  0  0
   16.4925    3.9876   48.7282 N   0  0  0  0  0  0  0  0  0  0  0  0
   16.2019    4.8502   47.5799 C   0  0  2  0  0  0  0  0  0  0  0  0
   15.2815    4.1118   46.5753 C   0  0  0  0  0  0  0  0  0  0  0  0
   14.2471    3.0291   48.5993 C   0  0  0  0  0  0  0  0  0  0  0  0
   14.1436    3.4934   47.2546 N   0  0  0  0  0  0  0  0  0  0  0  0
   17.5237    5.3610   46.9567 C   0  0  1  0  0  0  0  0  0  0  0  0
   18.6070    4.5625   47.3741 O   0  0  0  0  0  0  0  0  0  0  0  0
   17.4592    5.4059   45.4197 C   0  0  1  0  0  0  0  0  0  0  0  0
   16.3037    6.1067   45.0316 O   0  0  0  0  0  0  0  0  0  0  0  0
   18.6945    6.0991   44.8440 C   0  0  0  0  0  0  0  0  0  0  0  0
   11.1929    1.5190   50.7659 H   0  0  0  0  0  0  0  0  0  0  0  0
   12.3227    0.5125   51.7377 H   0  0  0  0  0  0  0  0  0  0  0  0
   14.4550    1.8188   52.1746 H   0  0  0  0  0  0  0  0  0  0  0  0
   17.4347    4.0033   49.1815 H   0  0  0  0  0  0  0  0  0  0  0  0
   15.6341    5.7273   47.9635 H   0  0  0  0  0  0  0  0  0  0  0  0
   14.8936    4.8240   45.8169 H   0  0  0  0  0  0  0  0  0  0  0  0
   15.8567    3.3185   46.0516 H   0  0  0  0  0  0  0  0  0  0  0  0
   13.2749    3.2952   46.7089 H   0  0  0  0  0  0  0  0  0  0  0  0
   17.6594    6.4075   47.3263 H   0  0  0  0  0  0  0  0  0  0  0  0
   18.9804    4.9746   48.1966 H   0  0  0  0  0  0  0  0  0  0  0  0
   17.4320    4.3651   45.0211 H   0  0  0  0  0  0  0  0  0  0  0  0
   16.2076    5.9813   44.0514 H   0  0  0  0  0  0  0  0  0  0  0  0
   18.4017    6.8467   44.0760 H   0  0  0  0  0  0  0  0  0  0  0  0
   19.3596    5.3471   44.3689 H   0  0  0  0  0  0  0  0  0  0  0  0
   19.2699    6.6053   45.6476 H   0  0  0  0  0  0  0  0  0  0  0  0
  2  1  2  0
  3  2  1  0
  4  2  1  0
  5  4  1  0
  6  5  1  0
  7  5  2  0
  8  6  1  0
  9  8  1  0
  9 10  1  0
 11  1  1  0
 11  6  2  0
 12 11  1  0
 12 10  1  0
 13  9  1  0
 13 14  1  0
 15 13  1  0
 16 15  1  0
 15 17  1  0
  3 18  1  0
  3 19  1  0
  4 20  1  0
  8 21  1  0
  9 22  1  1
 10 23  1  0
 10 24  1  0
 12 25  1  0
 13 26  1  1
 14 27  1  0
 15 28  1  6
 16 29  1  0
 17 30  1  0
 17 31  1  0
 17 32  1  0
M  END
