
     RDKit          3D

 80 84  0  0  0  0  0  0  0  0999 V2000
   26.5667    1.2905   22.9882 P   0  0  1  0  0  0  0  0  0  0  0  0
   30.9477    4.5678   26.2097 O   0  0  0  0  0  0  0  0  0  0  0  0
   25.2720   -2.0016   21.9527 C   0  0  0  0  0  0  0  0  0  0  0  0
   26.4513   -1.2678   22.2575 N   0  0  0  0  0  0  0  0  0  0  0  0
   25.2367   -2.6190   20.7104 O   0  0  0  0  0  0  0  0  0  0  0  0
   26.0665   -3.7036   20.3423 C   0  0  0  0  0  0  0  0  0  0  0  0
   29.8872    4.6746   23.6660 N   0  0  0  0  0  0  0  0  0  0  0  0
   24.3027   -2.0888   22.7565 O   0  0  0  0  0  0  0  0  0  0  0  0
   25.2094   -4.7436   19.6775 C   0  0  0  0  0  0  0  0  0  0  0  0
   30.6012    8.7499   25.6941 N   0  0  0  0  0  0  0  0  0  0  0  0
   27.5982    1.6210   21.6994 O   0  0  0  0  0  0  0  0  0  0  0  0
   25.3839   -6.1071   19.9778 C   0  0  0  0  0  0  0  0  0  0  0  0
   25.1417    1.5808   22.5815 O   0  0  0  0  0  0  0  0  0  0  0  0
   24.2077   -4.3618   18.7712 C   0  0  0  0  0  0  0  0  0  0  0  0
   29.7552    2.5701   24.6285 O   0  0  0  0  0  0  0  0  0  0  0  0
   24.5726   -7.0709   19.3679 C   0  0  0  0  0  0  0  0  0  0  0  0
   33.0201    4.1044   25.3668 O   0  0  0  0  0  0  0  0  0  0  0  0
   23.4024   -5.3282   18.1611 C   0  0  0  0  0  0  0  0  0  0  0  0
   23.5855   -6.6816   18.4571 C   0  0  0  0  0  0  0  0  0  0  0  0
   26.6783   -0.4714   23.4386 C   0  0  0  0  0  0  0  0  0  0  0  0
   27.9619   -0.9268   24.1594 C   0  0  0  0  0  0  0  0  0  0  0  0
   27.9045   -2.4197   24.4382 C   0  0  0  0  0  0  0  0  0  0  0  0
   28.4010   -3.3323   23.4886 C   0  0  0  0  0  0  0  0  0  0  0  0
   27.2629   -2.9163   25.5878 C   0  0  0  0  0  0  0  0  0  0  0  0
   28.2796   -4.7106   23.6942 C   0  0  0  0  0  0  0  0  0  0  0  0
   27.1535   -4.2980   25.7961 C   0  0  0  0  0  0  0  0  0  0  0  0
   27.6625   -5.1939   24.8506 C   0  0  0  0  0  0  0  0  0  0  0  0
   27.0212    2.3128   24.4107 C   0  0  1  0  0  0  0  0  0  0  0  0
   27.6601    3.6420   24.0402 C   0  0  2  0  0  0  0  0  0  0  0  0
   29.1570    3.5587   24.1189 C   0  0  0  0  0  0  0  0  0  0  0  0
   27.1370    4.6710   25.0409 C   0  0  0  0  0  0  0  0  0  0  0  0
   25.9264    4.0503   25.7191 C   0  0  0  0  0  0  0  0  0  0  0  0
   25.9434    2.5554   25.4416 C   0  0  0  0  0  0  0  0  0  0  0  0
   31.3362    4.7707   23.7598 C   0  0  2  0  0  0  0  0  0  0  0  0
   31.8309    4.4637   25.1514 C   0  0  0  0  0  0  0  0  0  0  0  0
   31.7750    6.1689   23.2985 C   0  0  0  0  0  0  0  0  0  0  0  0
   31.0897    7.2818   24.0557 C   0  0  0  0  0  0  0  0  0  0  0  0
   31.4116    7.7269   25.3331 C   0  0  0  0  0  0  0  0  0  0  0  0
   30.0245    8.0706   23.6429 C   0  0  0  0  0  0  0  0  0  0  0  0
   29.7615    8.9529   24.6604 C   0  0  0  0  0  0  0  0  0  0  0  0
   29.2807    8.0757   22.4589 C   0  0  0  0  0  0  0  0  0  0  0  0
   28.7441    9.9084   24.5547 C   0  0  0  0  0  0  0  0  0  0  0  0
   28.2471    9.0205   22.3292 C   0  0  0  0  0  0  0  0  0  0  0  0
   27.9824    9.9365   23.3695 C   0  0  0  0  0  0  0  0  0  0  0  0
   31.2433    4.3615   27.1564 H   0  0  0  0  0  0  0  0  0  0  0  0
   27.1885   -1.2339   21.5166 H   0  0  0  0  0  0  0  0  0  0  0  0
   26.8712   -3.3447   19.6640 H   0  0  0  0  0  0  0  0  0  0  0  0
   26.5365   -4.1413   21.2496 H   0  0  0  0  0  0  0  0  0  0  0  0
   29.3375    5.4144   23.1787 H   0  0  0  0  0  0  0  0  0  0  0  0
   30.6266    9.2761   26.5956 H   0  0  0  0  0  0  0  0  0  0  0  0
   27.6116    2.6081   21.6203 H   0  0  0  0  0  0  0  0  0  0  0  0
   26.1460   -6.4193   20.6814 H   0  0  0  0  0  0  0  0  0  0  0  0
   24.0492   -3.3174   18.5329 H   0  0  0  0  0  0  0  0  0  0  0  0
   24.7108   -8.1190   19.5999 H   0  0  0  0  0  0  0  0  0  0  0  0
   22.6347   -5.0277   17.4598 H   0  0  0  0  0  0  0  0  0  0  0  0
   22.9603   -7.4282   17.9848 H   0  0  0  0  0  0  0  0  0  0  0  0
   25.8479   -0.6480   24.1569 H   0  0  0  0  0  0  0  0  0  0  0  0
   28.0753   -0.3902   25.1243 H   0  0  0  0  0  0  0  0  0  0  0  0
   28.8482   -0.6890   23.5316 H   0  0  0  0  0  0  0  0  0  0  0  0
   28.8781   -2.9750   22.5845 H   0  0  0  0  0  0  0  0  0  0  0  0
   26.8460   -2.2336   26.3176 H   0  0  0  0  0  0  0  0  0  0  0  0
   28.6656   -5.4033   22.9576 H   0  0  0  0  0  0  0  0  0  0  0  0
   26.6650   -4.6725   26.6863 H   0  0  0  0  0  0  0  0  0  0  0  0
   27.5713   -6.2604   25.0108 H   0  0  0  0  0  0  0  0  0  0  0  0
   27.7342    1.6840   24.9676 H   0  0  0  0  0  0  0  0  0  0  0  0
   27.3508    3.9552   23.0187 H   0  0  0  0  0  0  0  0  0  0  0  0
   26.8627    5.6197   24.5285 H   0  0  0  0  0  0  0  0  0  0  0  0
   27.8961    4.9075   25.8214 H   0  0  0  0  0  0  0  0  0  0  0  0
   25.9378    4.2519   26.8128 H   0  0  0  0  0  0  0  0  0  0  0  0
   24.9999    4.4947   25.2926 H   0  0  0  0  0  0  0  0  0  0  0  0
   26.1516    2.0009   26.3856 H   0  0  0  0  0  0  0  0  0  0  0  0
   24.9447    2.2300   25.0790 H   0  0  0  0  0  0  0  0  0  0  0  0
   31.7874    4.0279   23.0657 H   0  0  0  0  0  0  0  0  0  0  0  0
   31.5631    6.2750   22.2131 H   0  0  0  0  0  0  0  0  0  0  0  0
   32.8752    6.2749   23.4166 H   0  0  0  0  0  0  0  0  0  0  0  0
   32.2023    7.3339   25.9587 H   0  0  0  0  0  0  0  0  0  0  0  0
   29.4890    7.3774   21.6592 H   0  0  0  0  0  0  0  0  0  0  0  0
   28.5460   10.6040   25.3597 H   0  0  0  0  0  0  0  0  0  0  0  0
   27.6545    9.0483   21.4241 H   0  0  0  0  0  0  0  0  0  0  0  0
   27.1874   10.6623   23.2584 H   0  0  0  0  0  0  0  0  0  0  0  0
  4  3  1  0
  5  3  1  0
  6  5  1  0
  8  3  2  0
  9  6  1  0
  1 11  1  6
 12  9  2  0
 13  1  2  0
 14  9  1  0
 16 12  1  0
 18 14  2  0
 19 18  1  0
 19 16  2  0
 20  4  1  0
 20  1  1  0
 21 20  1  0
 22 21  1  0
 23 22  2  0
 24 22  1  0
 25 23  1  0
 26 24  2  0
 27 26  1  0
 27 25  2  0
 28  1  1  0
 29 28  1  0
 29 30  1  0
 30 15  2  0
 30  7  1  0
 31 29  1  0
 32 31  1  0
 33 32  1  0
 33 28  1  0
 34  7  1  0
 35 34  1  0
 35 17  2  0
 35  2  1  0
 34 36  1  0
 37 36  1  0
 38 37  2  0
 38 10  1  0
 39 37  1  0
 40 39  2  0
 40 10  1  0
 41 39  1  0
 42 40  1  0
 43 41  2  0
 44 43  1  0
 44 42  2  0
  2 45  1  0
  4 46  1  0
  6 47  1  0
  6 48  1  0
  7 49  1  0
 10 50  1  0
 11 51  1  0
 12 52  1  0
 14 53  1  0
 16 54  1  0
 18 55  1  0
 19 56  1  0
 20 57  1  0
 21 58  1  0
 21 59  1  0
 23 60  1  0
 24 61  1  0
 25 62  1  0
 26 63  1  0
 27 64  1  0
 28 65  1  1
 29 66  1  6
 31 67  1  0
 31 68  1  0
 32 69  1  0
 32 70  1  0
 33 71  1  0
 33 72  1  0
 34 73  1  6
 36 74  1  0
 36 75  1  0
 38 76  1  0
 41 77  1  0
 42 78  1  0
 43 79  1  0
 44 80  1  0
M  END
