
     RDKit          3D

 32 33  0  0  0  0  0  0  0  0999 V2000
    8.5770   12.1691   41.6852 N   0  0  0  0  0  0  0  0  0  0  0  0
    8.5077   12.5183   40.3760 C   0  0  0  0  0  0  0  0  0  0  0  0
    7.6064   11.8415   39.5108 N   0  0  0  0  0  0  0  0  0  0  0  0
    9.3038   13.5096   39.8906 N   0  0  0  0  0  0  0  0  0  0  0  0
   10.1762   14.1734   40.6961 C   0  0  0  0  0  0  0  0  0  0  0  0
   10.2582   13.8250   42.0537 C   0  0  0  0  0  0  0  0  0  0  0  0
   10.9041   15.0816   40.2087 O   0  0  0  0  0  0  0  0  0  0  0  0
   11.1792   14.4566   42.9534 N   0  0  0  0  0  0  0  0  0  0  0  0
   11.5819   13.7454   44.1746 C   0  0  2  0  0  0  0  0  0  0  0  0
   10.3445   13.1095   44.8580 C   0  0  0  0  0  0  0  0  0  0  0  0
    9.4338   12.7969   42.5279 C   0  0  0  0  0  0  0  0  0  0  0  0
    9.5069   12.3957   43.8947 N   0  0  0  0  0  0  0  0  0  0  0  0
   12.3963   14.6872   45.1066 C   0  0  1  0  0  0  0  0  0  0  0  0
   11.8394   15.9822   45.1531 O   0  0  0  0  0  0  0  0  0  0  0  0
   12.5938   14.1068   46.5273 C   0  0  1  0  0  0  0  0  0  0  0  0
   11.4414   13.3938   46.8984 O   0  0  0  0  0  0  0  0  0  0  0  0
   13.8037   13.1721   46.5705 C   0  0  0  0  0  0  0  0  0  0  0  0
    7.5417   12.0957   38.5001 H   0  0  0  0  0  0  0  0  0  0  0  0
    6.9957   11.0786   39.8787 H   0  0  0  0  0  0  0  0  0  0  0  0
    9.2453   13.7677   38.8791 H   0  0  0  0  0  0  0  0  0  0  0  0
   11.6595   15.3419   42.6731 H   0  0  0  0  0  0  0  0  0  0  0  0
   12.2470   12.9099   43.8618 H   0  0  0  0  0  0  0  0  0  0  0  0
    9.7233   13.8936   45.3374 H   0  0  0  0  0  0  0  0  0  0  0  0
   10.6710   12.3948   45.6429 H   0  0  0  0  0  0  0  0  0  0  0  0
    8.8676   11.6458   44.2418 H   0  0  0  0  0  0  0  0  0  0  0  0
   13.4059   14.7838   44.6481 H   0  0  0  0  0  0  0  0  0  0  0  0
   12.5388   16.6074   45.4741 H   0  0  0  0  0  0  0  0  0  0  0  0
   12.7727   14.9404   47.2456 H   0  0  0  0  0  0  0  0  0  0  0  0
   10.7641   14.0650   47.1755 H   0  0  0  0  0  0  0  0  0  0  0  0
   14.4091   13.2969   45.6478 H   0  0  0  0  0  0  0  0  0  0  0  0
   13.4757   12.1126   46.6280 H   0  0  0  0  0  0  0  0  0  0  0  0
   14.4441   13.4035   47.4485 H   0  0  0  0  0  0  0  0  0  0  0  0
  2  1  2  0
  3  2  1  0
  4  2  1  0
  5  4  1  0
  6  5  1  0
  7  5  2  0
  8  6  1  0
  9  8  1  0
  9 10  1  0
 11  6  2  0
 11  1  1  0
 12 11  1  0
 12 10  1  0
 13  9  1  0
 13 14  1  0
 15 13  1  0
 16 15  1  0
 15 17  1  0
  3 18  1  0
  3 19  1  0
  4 20  1  0
  8 21  1  0
  9 22  1  6
 10 23  1  0
 10 24  1  0
 12 25  1  0
 13 26  1  6
 14 27  1  0
 15 28  1  1
 16 29  1  0
 17 30  1  0
 17 31  1  0
 17 32  1  0
M  END
