
     RDKit          3D

 75 78  0  0  0  0  0  0  0  0999 V2000
   -9.0396   16.4428   -7.7047 N   0  0  0  0  0  0  0  0  0  0  0  0
   -9.0856   16.1132   -6.3239 C   0  0  0  0  0  0  0  0  0  0  0  0
   -7.8967   15.8463   -5.6400 C   0  0  0  0  0  0  0  0  0  0  0  0
   -7.9328   15.5148   -4.2980 C   0  0  0  0  0  0  0  0  0  0  0  0
   -9.1563   15.4586   -3.6381 C   0  0  0  0  0  0  0  0  0  0  0  0
  -10.3527   15.7256   -4.3067 C   0  0  0  0  0  0  0  0  0  0  0  0
  -10.3159   16.0533   -5.6561 C   0  0  0  0  0  0  0  0  0  0  0  0
   -9.1719   15.0066   -1.9920 S   0  0  0  0  0  0  0  0  0  0  0  0
  -10.4524   14.2906   -1.7235 O   0  0  0  0  0  0  0  0  0  0  0  0
   -8.0245   14.0878   -1.7276 O   0  0  0  0  0  0  0  0  0  0  0  0
   -9.0262   16.3886   -0.9778 N   0  0  0  0  0  0  0  0  0  0  0  0
   -7.9749   17.3091   -1.4387 C   0  0  0  0  0  0  0  0  0  0  0  0
   -7.3475   18.0138   -0.2221 C   0  0  0  0  0  0  0  0  0  0  0  0
   -6.5024   17.0321    0.6023 C   0  0  0  0  0  0  0  0  0  0  0  0
   -6.5061   19.2106   -0.6521 C   0  0  0  0  0  0  0  0  0  0  0  0
  -10.3303   17.0335   -0.7607 C   0  0  0  0  0  0  0  0  0  0  0  0
  -10.6469   16.9471    0.7252 C   0  0  1  0  0  0  0  0  0  0  0  0
  -11.7879   17.7143    1.0055 O   0  0  0  0  0  0  0  0  0  0  0  0
  -10.8147   15.4957    1.2104 C   0  0  1  0  0  0  0  0  0  0  0  0
  -10.7723   15.5213    2.6571 N   0  0  0  0  0  0  0  0  0  0  0  0
   -9.7756   14.8809    3.4235 C   0  0  0  0  0  0  0  0  0  0  0  0
   -8.9986   14.0253    2.9191 O   0  0  0  0  0  0  0  0  0  0  0  0
   -9.7060   15.2167    4.7596 O   0  0  0  0  0  0  0  0  0  0  0  0
  -10.3341   16.3617    5.3027 C   0  0  1  0  0  0  0  0  0  0  0  0
  -11.6852   15.9188    5.7783 C   0  0  0  0  0  0  0  0  0  0  0  0
  -11.4650   15.2322    6.9874 O   0  0  0  0  0  0  0  0  0  0  0  0
  -10.3157   15.8150    7.5873 C   0  0  1  0  0  0  0  0  0  0  0  0
   -9.3836   14.8114    7.9485 O   0  0  0  0  0  0  0  0  0  0  0  0
   -8.1146   15.1519    7.4240 C   0  0  0  0  0  0  0  0  0  0  0  0
   -8.1915   16.4955    6.7249 C   0  0  0  0  0  0  0  0  0  0  0  0
   -9.6740   16.7595    6.6036 C   0  0  1  0  0  0  0  0  0  0  0  0
  -12.1417   14.8516    0.7721 C   0  0  0  0  0  0  0  0  0  0  0  0
  -11.5717   13.0738    2.4968 C   0  0  0  0  0  0  0  0  0  0  0  0
  -11.7359   11.7900    3.0238 C   0  0  0  0  0  0  0  0  0  0  0  0
  -12.6251   10.8947    2.4253 C   0  0  0  0  0  0  0  0  0  0  0  0
  -13.3546   11.2834    1.3010 C   0  0  0  0  0  0  0  0  0  0  0  0
  -13.1954   12.5652    0.7724 C   0  0  0  0  0  0  0  0  0  0  0  0
  -12.2962   13.4693    1.3584 C   0  0  0  0  0  0  0  0  0  0  0  0
   -8.1298   16.4902   -8.2158 H   0  0  0  0  0  0  0  0  0  0  0  0
   -9.9161   16.6448   -8.2358 H   0  0  0  0  0  0  0  0  0  0  0  0
   -6.9446   15.8895   -6.1543 H   0  0  0  0  0  0  0  0  0  0  0  0
   -7.0045   15.2962   -3.7860 H   0  0  0  0  0  0  0  0  0  0  0  0
  -11.3055   15.6749   -3.7954 H   0  0  0  0  0  0  0  0  0  0  0  0
  -11.2391   16.2586   -6.1835 H   0  0  0  0  0  0  0  0  0  0  0  0
   -7.1639   16.7599   -1.9648 H   0  0  0  0  0  0  0  0  0  0  0  0
   -8.3821   18.0452   -2.1683 H   0  0  0  0  0  0  0  0  0  0  0  0
   -8.1408   18.4334    0.4234 H   0  0  0  0  0  0  0  0  0  0  0  0
   -7.0183   16.0510    0.6781 H   0  0  0  0  0  0  0  0  0  0  0  0
   -5.5062   16.8794    0.1343 H   0  0  0  0  0  0  0  0  0  0  0  0
   -6.3581   17.4221    1.6324 H   0  0  0  0  0  0  0  0  0  0  0  0
   -6.1284   19.0698   -1.6878 H   0  0  0  0  0  0  0  0  0  0  0  0
   -5.6396   19.3397    0.0314 H   0  0  0  0  0  0  0  0  0  0  0  0
   -7.1140   20.1401   -0.6166 H   0  0  0  0  0  0  0  0  0  0  0  0
  -11.1519   16.5863   -1.3585 H   0  0  0  0  0  0  0  0  0  0  0  0
  -10.3105   18.1104   -1.0430 H   0  0  0  0  0  0  0  0  0  0  0  0
   -9.7850   17.3747    1.2822 H   0  0  0  0  0  0  0  0  0  0  0  0
  -12.2639   17.8694    0.1480 H   0  0  0  0  0  0  0  0  0  0  0  0
   -9.9746   14.8809    0.8284 H   0  0  0  0  0  0  0  0  0  0  0  0
  -11.5330   16.0195    3.1739 H   0  0  0  0  0  0  0  0  0  0  0  0
  -10.4141   17.2065    4.5830 H   0  0  0  0  0  0  0  0  0  0  0  0
  -12.1753   15.2470    5.0407 H   0  0  0  0  0  0  0  0  0  0  0  0
  -12.3469   16.7955    5.9602 H   0  0  0  0  0  0  0  0  0  0  0  0
  -10.6210   16.3663    8.5037 H   0  0  0  0  0  0  0  0  0  0  0  0
   -7.8050   14.3682    6.6995 H   0  0  0  0  0  0  0  0  0  0  0  0
   -7.3679   15.1828    8.2461 H   0  0  0  0  0  0  0  0  0  0  0  0
   -7.7289   17.2749    7.3697 H   0  0  0  0  0  0  0  0  0  0  0  0
   -7.6672   16.4925    5.7451 H   0  0  0  0  0  0  0  0  0  0  0  0
   -9.9163   17.8194    6.8473 H   0  0  0  0  0  0  0  0  0  0  0  0
  -12.9866   15.4937    1.1044 H   0  0  0  0  0  0  0  0  0  0  0  0
  -12.2403   14.7944   -0.3261 H   0  0  0  0  0  0  0  0  0  0  0  0
  -10.8889   13.7531    2.9839 H   0  0  0  0  0  0  0  0  0  0  0  0
  -11.1765   11.4903    3.9005 H   0  0  0  0  0  0  0  0  0  0  0  0
  -12.7535    9.9021    2.8373 H   0  0  0  0  0  0  0  0  0  0  0  0
  -14.0510   10.5927    0.8434 H   0  0  0  0  0  0  0  0  0  0  0  0
  -13.7781   12.8496   -0.0950 H   0  0  0  0  0  0  0  0  0  0  0  0
  2  1  1  0
  3  2  2  0
  4  3  1  0
  5  4  2  0
  6  5  1  0
  7  2  1  0
  7  6  2  0
  8  5  1  0
  9  8  2  0
 10  8  2  0
  8 11  1  0
 12 11  1  0
 13 12  1  0
 13 14  1  0
 15 13  1  0
 16 11  1  0
 17 16  1  0
 17 18  1  0
 19 17  1  0
 20 19  1  0
 21 20  1  0
 22 21  2  0
 23 21  1  0
 24 23  1  0
 25 24  1  0
 26 25  1  0
 27 26  1  0
 28 27  1  0
 29 28  1  0
 30 29  1  0
 31 30  1  0
 31 27  1  0
 31 24  1  0
 19 32  1  0
 34 33  2  0
 35 34  1  0
 36 35  2  0
 37 36  1  0
 38 37  2  0
 38 33  1  0
 38 32  1  0
  1 39  1  0
  1 40  1  0
  3 41  1  0
  4 42  1  0
  6 43  1  0
  7 44  1  0
 12 45  1  0
 12 46  1  0
 13 47  1  0
 14 48  1  0
 14 49  1  0
 14 50  1  0
 15 51  1  0
 15 52  1  0
 15 53  1  0
 16 54  1  0
 16 55  1  0
 17 56  1  1
 18 57  1  0
 19 58  1  6
 20 59  1  0
 24 60  1  6
 25 61  1  0
 25 62  1  0
 27 63  1  1
 29 64  1  0
 29 65  1  0
 30 66  1  0
 30 67  1  0
 31 68  1  1
 32 69  1  0
 32 70  1  0
 33 71  1  0
 34 72  1  0
 35 73  1  0
 36 74  1  0
 37 75  1  0
M  END
