
     RDKit          3D

 38 40  0  0  0  0  0  0  0  0999 V2000
   -1.4930    0.4091  -29.2366 C   0  0  0  0  0  0  0  0  0  0  0  0
   -2.5894   -0.2753  -28.7032 C   0  0  0  0  0  0  0  0  0  0  0  0
   -1.0344    1.5798  -28.6258 C   0  0  0  0  0  0  0  0  0  0  0  0
   -5.1961   -0.3731  -17.3426 C   0  0  0  0  0  0  0  0  0  0  0  0
   -5.5948    0.2022  -18.5504 C   0  0  0  0  0  0  0  0  0  0  0  0
   -3.9246   -0.9378  -17.2181 C   0  0  0  0  0  0  0  0  0  0  0  0
   -3.2328    0.2130  -27.5607 C   0  0  0  0  0  0  0  0  0  0  0  0
   -1.6720    2.0681  -27.4806 C   0  0  0  0  0  0  0  0  0  0  0  0
   -1.9498    1.1126  -22.3766 C   0  0  0  0  0  0  0  0  0  0  0  0
   -3.9691   -0.1977  -22.6402 C   0  0  0  0  0  0  0  0  0  0  0  0
   -4.7189    0.2147  -19.6351 C   0  0  0  0  0  0  0  0  0  0  0  0
   -2.1551    1.6923  -23.6185 C   0  0  0  0  0  0  0  0  0  0  0  0
   -4.1761    0.3830  -23.8939 C   0  0  0  0  0  0  0  0  0  0  0  0
   -3.4626    1.9339  -25.7473 C   0  0  0  0  0  0  0  0  0  0  0  0
   -3.0398   -0.9258  -18.2976 C   0  0  0  0  0  0  0  0  0  0  0  0
   -2.8381    0.1598  -21.8873 C   0  0  0  0  0  0  0  0  0  0  0  0
   -2.7796    1.3924  -26.9447 C   0  0  0  0  0  0  0  0  0  0  0  0
   -3.2712    1.3408  -24.3956 C   0  0  0  0  0  0  0  0  0  0  0  0
   -3.4350   -0.3401  -19.5046 C   0  0  0  0  0  0  0  0  0  0  0  0
   -1.7371   -1.4955  -18.1511 N   0  0  0  0  0  0  0  0  0  0  0  0
   -2.5587   -0.4112  -20.6174 N   0  0  0  0  0  0  0  0  0  0  0  0
   -4.2712    2.8878  -25.8991 O   0  0  0  0  0  0  0  0  0  0  0  0
   -0.9982    0.0314  -30.1220 H   0  0  0  0  0  0  0  0  0  0  0  0
   -2.9427   -1.1823  -29.1763 H   0  0  0  0  0  0  0  0  0  0  0  0
   -0.1849    2.1082  -29.0388 H   0  0  0  0  0  0  0  0  0  0  0  0
   -5.8766   -0.3855  -16.5009 H   0  0  0  0  0  0  0  0  0  0  0  0
   -6.5847    0.6291  -18.6473 H   0  0  0  0  0  0  0  0  0  0  0  0
   -3.6312   -1.3818  -16.2751 H   0  0  0  0  0  0  0  0  0  0  0  0
   -4.0836   -0.3224  -27.1576 H   0  0  0  0  0  0  0  0  0  0  0  0
   -1.3104    2.9786  -27.0186 H   0  0  0  0  0  0  0  0  0  0  0  0
   -1.0759    1.3959  -21.8024 H   0  0  0  0  0  0  0  0  0  0  0  0
   -4.6905   -0.9109  -22.2638 H   0  0  0  0  0  0  0  0  0  0  0  0
   -5.0459    0.6339  -20.5783 H   0  0  0  0  0  0  0  0  0  0  0  0
   -1.4213    2.4020  -23.9761 H   0  0  0  0  0  0  0  0  0  0  0  0
   -5.0466    0.0915  -24.4681 H   0  0  0  0  0  0  0  0  0  0  0  0
   -0.8686   -0.9870  -18.4262 H   0  0  0  0  0  0  0  0  0  0  0  0
   -1.6174   -2.4205  -17.6810 H   0  0  0  0  0  0  0  0  0  0  0  0
   -1.6903   -0.9846  -20.5112 H   0  0  0  0  0  0  0  0  0  0  0  0
  2  1  2  0
  3  1  1  0
  5  4  2  0
  6  4  1  0
  7  2  1  0
  8  3  2  0
 11  5  1  0
 12  9  2  0
 13 10  1  0
 15  6  2  0
 16 10  2  0
 16  9  1  0
 17 14  1  0
 17  8  1  0
 17  7  2  0
 18 14  1  0
 18 13  2  0
 18 12  1  0
 19 15  1  0
 19 11  2  0
 20 15  1  0
 21 19  1  0
 21 16  1  0
 22 14  2  0
  1 23  1  0
  2 24  1  0
  3 25  1  0
  4 26  1  0
  5 27  1  0
  6 28  1  0
  7 29  1  0
  8 30  1  0
  9 31  1  0
 10 32  1  0
 11 33  1  0
 12 34  1  0
 13 35  1  0
 20 36  1  0
 20 37  1  0
 21 38  1  0
M  END
