
     RDKit          3D

 14 13  0  0  0  0  0  0  0  0999 V2000
   20.9527    2.6317    4.5053 O   0  0  0  0  0  0  0  0  0  0  0  0
   22.0332    2.7002    5.1536 C   0  0  0  0  0  0  0  0  0  0  0  0
   22.4030    1.6783    6.0115 O   0  0  0  0  0  0  0  0  0  0  0  0
   21.9458    6.5086    2.0572 O   0  0  0  0  0  0  0  0  0  0  0  0
   22.9200    3.8509    5.0095 C   0  0  0  0  0  0  0  0  0  0  0  0
   24.1262    3.7397    5.3539 O   0  0  0  0  0  0  0  0  0  0  0  0
   23.2327    4.2813    2.0488 O   0  0  0  0  0  0  0  0  0  0  0  0
   22.4202    5.1400    4.4357 C   0  0  0  0  0  0  0  0  0  0  0  0
   20.8091    4.2213    2.4641 O   0  0  0  0  0  0  0  0  0  0  0  0
   22.0810    4.9815    2.7028 S   0  0  0  0  0  0  0  0  0  0  0  0
   23.1185    1.0117    5.7471 H   0  0  0  0  0  0  0  0  0  0  0  0
   21.2059    6.4461    1.4015 H   0  0  0  0  0  0  0  0  0  0  0  0
   23.1779    5.9387    4.5836 H   0  0  0  0  0  0  0  0  0  0  0  0
   21.4948    5.4564    4.9618 H   0  0  0  0  0  0  0  0  0  0  0  0
  2  1  2  0
  3  2  1  0
  5  2  1  0
  6  5  2  0
  8  5  1  0
 10  9  2  0
 10  8  1  0
 10  7  2  0
 10  4  1  0
  3 11  1  0
  4 12  1  0
  8 13  1  0
  8 14  1  0
M  END
