
     RDKit          3D

 14 13  0  0  0  0  0  0  0  0999 V2000
   21.9406    2.7185    6.3874 O   0  0  0  0  0  0  0  0  0  0  0  0
   22.3895    2.0270    5.4320 C   0  0  0  0  0  0  0  0  0  0  0  0
   22.8080    0.7244    5.6446 O   0  0  0  0  0  0  0  0  0  0  0  0
   25.1437    3.8220    3.4883 O   0  0  0  0  0  0  0  0  0  0  0  0
   22.4713    2.5790    4.0830 C   0  0  0  0  0  0  0  0  0  0  0  0
   22.5862    1.7920    3.1066 O   0  0  0  0  0  0  0  0  0  0  0  0
   23.9963    6.1193    3.3373 O   0  0  0  0  0  0  0  0  0  0  0  0
   22.3923    4.0556    3.8502 C   0  0  0  0  0  0  0  0  0  0  0  0
   24.2287    5.0802    5.5545 O   0  0  0  0  0  0  0  0  0  0  0  0
   23.9683    4.8289    4.0979 S   0  0  0  0  0  0  0  0  0  0  0  0
   22.5015    0.2071    6.4599 H   0  0  0  0  0  0  0  0  0  0  0  0
   25.5850    4.3457    2.7725 H   0  0  0  0  0  0  0  0  0  0  0  0
   21.6545    4.5091    4.5459 H   0  0  0  0  0  0  0  0  0  0  0  0
   22.0440    4.2590    2.8156 H   0  0  0  0  0  0  0  0  0  0  0  0
  2  1  2  0
  3  2  1  0
  5  2  1  0
  6  5  2  0
  8  5  1  0
 10  9  2  0
 10  8  1  0
 10  7  2  0
 10  4  1  0
  3 11  1  0
  4 12  1  0
  8 13  1  0
  8 14  1  0
M  END
