
     RDKit          3D

 35 36  0  0  0  0  0  0  0  0999 V2000
   24.3209   -2.5711    8.2508 P   0  0  0  0  0  0  0  0  0  0  0  0
   23.1361   -0.3074    8.1270 C   0  0  0  0  0  0  0  0  0  0  0  0
   24.2295   -0.9515    8.7103 O   0  0  0  0  0  0  0  0  0  0  0  0
   22.3042    0.2126    9.3051 C   0  0  1  0  0  0  0  0  0  0  0  0
   21.3207    1.1080    8.8456 O   0  0  0  0  0  0  0  0  0  0  0  0
   21.6191   -0.9326   10.0696 C   0  0  1  0  0  0  0  0  0  0  0  0
   21.5544   -0.6535   11.4545 O   0  0  0  0  0  0  0  0  0  0  0  0
   20.2458   -0.9568    9.4431 C   0  0  1  0  0  0  0  0  0  0  0  0
   19.2852   -1.4345   10.3501 O   0  0  0  0  0  0  0  0  0  0  0  0
   20.0634    0.5331    9.1118 C   0  0  2  0  0  0  0  0  0  0  0  0
   19.1494    0.8109    7.9795 N   0  0  0  0  0  0  0  0  0  0  0  0
   19.7864   -1.2719    6.9184 O   0  0  0  0  0  0  0  0  0  0  0  0
   18.3042    1.8993    7.9973 C   0  0  0  0  0  0  0  0  0  0  0  0
   18.3457    2.7352    8.9340 O   0  0  0  0  0  0  0  0  0  0  0  0
   17.3932    2.0871    7.0078 N   0  0  0  0  0  0  0  0  0  0  0  0
   17.2594    1.1951    6.0003 C   0  0  0  0  0  0  0  0  0  0  0  0
   16.4114    1.3951    5.0933 O   0  0  0  0  0  0  0  0  0  0  0  0
   18.0567    0.0604    5.9745 C   0  0  0  0  0  0  0  0  0  0  0  0
   19.0057   -0.1194    6.9771 C   0  0  0  0  0  0  0  0  0  0  0  0
   22.9626   -3.2201    8.1244 O   0  0  0  0  0  0  0  0  0  0  0  0
   25.1952   -3.3159    9.4781 O   0  0  0  0  0  0  0  0  0  0  0  0
   25.1669   -2.6947    6.8007 O   0  0  0  0  0  0  0  0  0  0  0  0
   23.4705    0.5537    7.5048 H   0  0  0  0  0  0  0  0  0  0  0  0
   22.5483   -1.0238    7.5164 H   0  0  0  0  0  0  0  0  0  0  0  0
   22.9836    0.7703    9.9890 H   0  0  0  0  0  0  0  0  0  0  0  0
   22.1304   -1.9107    9.9302 H   0  0  0  0  0  0  0  0  0  0  0  0
   21.9346   -1.4171   11.9614 H   0  0  0  0  0  0  0  0  0  0  0  0
   20.2665   -1.6107    8.5464 H   0  0  0  0  0  0  0  0  0  0  0  0
   18.4311   -0.9917   10.1062 H   0  0  0  0  0  0  0  0  0  0  0  0
   19.7232    1.0142   10.0431 H   0  0  0  0  0  0  0  0  0  0  0  0
   20.7936   -1.2636    6.8262 H   0  0  0  0  0  0  0  0  0  0  0  0
   16.7738    2.9299    7.0311 H   0  0  0  0  0  0  0  0  0  0  0  0
   17.9509   -0.6698    5.1810 H   0  0  0  0  0  0  0  0  0  0  0  0
   26.0845   -2.8804    9.4549 H   0  0  0  0  0  0  0  0  0  0  0  0
   25.6086   -1.8151    6.6903 H   0  0  0  0  0  0  0  0  0  0  0  0
  3  2  1  0
  3  1  1  0
  4  2  1  0
  5  4  1  0
  6  4  1  0
  6  7  1  0
  8  6  1  0
  8  9  1  0
 10  8  1  0
 10  5  1  0
 10 11  1  0
 13 11  1  0
 14 13  2  0
 15 13  1  0
 16 15  1  0
 17 16  2  0
 18 16  1  0
 19 18  2  0
 19 12  1  0
 19 11  1  0
 20  1  2  0
 21  1  1  0
 22  1  1  0
  2 23  1  0
  2 24  1  0
  4 25  1  1
  6 26  1  1
  7 27  1  0
  8 28  1  6
  9 29  1  0
 10 30  1  1
 12 31  1  0
 15 32  1  0
 18 33  1  0
 21 34  1  0
 22 35  1  0
M  END
