
     RDKit          3D

 35 36  0  0  0  0  0  0  0  0999 V2000
   24.7601   -2.3797    8.2065 P   0  0  0  0  0  0  0  0  0  0  0  0
   22.6110   -1.0146    8.4549 C   0  0  0  0  0  0  0  0  0  0  0  0
   23.5739   -1.7034    9.1957 O   0  0  0  0  0  0  0  0  0  0  0  0
   21.8858   -0.1256    9.4720 C   0  0  1  0  0  0  0  0  0  0  0  0
   21.0756    0.8118    8.8049 O   0  0  0  0  0  0  0  0  0  0  0  0
   21.0098   -0.9510   10.4293 C   0  0  1  0  0  0  0  0  0  0  0  0
   20.9973   -0.3842   11.7250 O   0  0  0  0  0  0  0  0  0  0  0  0
   19.6531   -0.8661    9.7728 C   0  0  1  0  0  0  0  0  0  0  0  0
   18.6244   -0.9715   10.7236 O   0  0  0  0  0  0  0  0  0  0  0  0
   19.7369    0.5314    9.1381 C   0  0  2  0  0  0  0  0  0  0  0  0
   18.8849    0.7228    7.9413 N   0  0  0  0  0  0  0  0  0  0  0  0
   17.6829    2.5111    9.0490 O   0  0  0  0  0  0  0  0  0  0  0  0
   19.1292    0.0300    6.7753 C   0  0  0  0  0  0  0  0  0  0  0  0
   20.0269   -0.8469    6.7200 O   0  0  0  0  0  0  0  0  0  0  0  0
   18.4138    0.2898    5.6505 N   0  0  0  0  0  0  0  0  0  0  0  0
   17.4717    1.2596    5.6279 C   0  0  0  0  0  0  0  0  0  0  0  0
   16.8196    1.4768    4.5746 O   0  0  0  0  0  0  0  0  0  0  0  0
   17.2320    2.0138    6.7670 C   0  0  0  0  0  0  0  0  0  0  0  0
   17.9501    1.7313    7.9257 C   0  0  0  0  0  0  0  0  0  0  0  0
   24.2050   -2.9020    6.9022 O   0  0  0  0  0  0  0  0  0  0  0  0
   25.3935   -3.6511    9.1050 O   0  0  0  0  0  0  0  0  0  0  0  0
   25.9639   -1.2393    7.9164 O   0  0  0  0  0  0  0  0  0  0  0  0
   23.0917   -0.3724    7.6823 H   0  0  0  0  0  0  0  0  0  0  0  0
   21.9049   -1.7289    7.9830 H   0  0  0  0  0  0  0  0  0  0  0  0
   22.6540    0.4352   10.0512 H   0  0  0  0  0  0  0  0  0  0  0  0
   21.3398   -2.0103   10.5107 H   0  0  0  0  0  0  0  0  0  0  0  0
   20.8380    0.5926   11.6544 H   0  0  0  0  0  0  0  0  0  0  0  0
   19.5566   -1.6850    9.0297 H   0  0  0  0  0  0  0  0  0  0  0  0
   17.8671   -0.4351   10.3716 H   0  0  0  0  0  0  0  0  0  0  0  0
   19.4883    1.2466    9.9389 H   0  0  0  0  0  0  0  0  0  0  0  0
   17.7622    2.1731    9.9989 H   0  0  0  0  0  0  0  0  0  0  0  0
   18.6031   -0.2607    4.7812 H   0  0  0  0  0  0  0  0  0  0  0  0
   16.4900    2.8033    6.7595 H   0  0  0  0  0  0  0  0  0  0  0  0
   25.7886   -3.2225    9.9057 H   0  0  0  0  0  0  0  0  0  0  0  0
   26.6880   -1.4694    8.5517 H   0  0  0  0  0  0  0  0  0  0  0  0
  3  2  1  0
  3  1  1  0
  4  2  1  0
  5  4  1  0
  6  4  1  0
  6  7  1  0
  8  6  1  0
  8  9  1  0
 10  8  1  0
 10  5  1  0
 10 11  1  0
 13 11  1  0
 14 13  2  0
 15 13  1  0
 16 15  1  0
 17 16  2  0
 18 16  1  0
 19 18  2  0
 19 12  1  0
 19 11  1  0
 20  1  2  0
 21  1  1  0
 22  1  1  0
  2 23  1  0
  2 24  1  0
  4 25  1  1
  6 26  1  1
  7 27  1  0
  8 28  1  6
  9 29  1  0
 10 30  1  1
 12 31  1  0
 15 32  1  0
 18 33  1  0
 21 34  1  0
 22 35  1  0
M  END
