
     RDKit          3D

 45 48  0  0  0  0  0  0  0  0999 V2000
   42.7976   -1.1574   34.1395 C   0  0  0  0  0  0  0  0  0  0  0  0
   43.1470    0.1402   33.7746 O   0  0  0  0  0  0  0  0  0  0  0  0
   42.2342   -1.4030   35.3911 C   0  0  0  0  0  0  0  0  0  0  0  0
   41.6513   -0.4042   36.0945 O   0  0  0  0  0  0  0  0  0  0  0  0
   41.8629   -2.6779   35.7801 C   0  0  0  0  0  0  0  0  0  0  0  0
   41.9316   -3.7220   34.8782 C   0  0  0  0  0  0  0  0  0  0  0  0
   42.4426   -3.4995   33.6083 C   0  0  0  0  0  0  0  0  0  0  0  0
   42.9068   -2.2257   33.2414 C   0  0  0  0  0  0  0  0  0  0  0  0
   44.5673   -2.0080   27.6432 C   0  0  0  0  0  0  0  0  0  0  0  0
   41.0809    1.3413   37.5079 C   0  0  0  0  0  0  0  0  0  0  0  0
   43.9295   -1.4913   25.2788 N   0  0  0  0  0  0  0  0  0  0  0  0
   45.5616   -1.1330   28.1629 C   0  0  0  0  0  0  0  0  0  0  0  0
   42.1874    0.5665   36.8822 C   0  0  0  0  0  0  0  0  0  0  0  0
   45.1428   -3.4421   25.7899 N   0  0  0  0  0  0  0  0  0  0  0  0
   45.5822   -0.8013   29.5135 C   0  0  0  0  0  0  0  0  0  0  0  0
   43.2056    0.3335   37.9576 C   0  0  0  0  0  0  0  0  0  0  0  0
   44.5051   -1.2642   31.6191 N   0  0  0  0  0  0  0  0  0  0  0  0
   44.6237   -1.3802   30.3130 C   0  0  0  0  0  0  0  0  0  0  0  0
   43.2938    1.7815   38.4295 C   0  0  0  0  0  0  0  0  0  0  0  0
   42.8914   -2.6587   30.8333 N   0  0  0  0  0  0  0  0  0  0  0  0
   43.6740   -2.2258   29.8435 C   0  0  0  0  0  0  0  0  0  0  0  0
   41.8468    2.3057   38.3844 C   0  0  0  0  0  0  0  0  0  0  0  0
   43.6000   -2.5664   28.5105 C   0  0  0  0  0  0  0  0  0  0  0  0
   44.5685   -2.3553   26.2157 C   0  0  0  0  0  0  0  0  0  0  0  0
   43.4308   -2.0349   31.9074 C   0  0  0  0  0  0  0  0  0  0  0  0
   41.3945   -2.8402   36.7436 H   0  0  0  0  0  0  0  0  0  0  0  0
   41.5835   -4.7076   35.1599 H   0  0  0  0  0  0  0  0  0  0  0  0
   42.4934   -4.3362   32.9224 H   0  0  0  0  0  0  0  0  0  0  0  0
   40.4336    0.6758   38.1225 H   0  0  0  0  0  0  0  0  0  0  0  0
   40.4702    1.8767   36.7474 H   0  0  0  0  0  0  0  0  0  0  0  0
   43.1999   -0.8046   25.5692 H   0  0  0  0  0  0  0  0  0  0  0  0
   44.0892   -1.6124   24.2537 H   0  0  0  0  0  0  0  0  0  0  0  0
   46.3564   -0.7386   27.5466 H   0  0  0  0  0  0  0  0  0  0  0  0
   42.6716    1.2417   36.1285 H   0  0  0  0  0  0  0  0  0  0  0  0
   45.1201   -3.6863   24.7745 H   0  0  0  0  0  0  0  0  0  0  0  0
   45.6994   -4.0757   26.4024 H   0  0  0  0  0  0  0  0  0  0  0  0
   46.3441   -0.1498   29.9226 H   0  0  0  0  0  0  0  0  0  0  0  0
   42.8178   -0.3433   38.7513 H   0  0  0  0  0  0  0  0  0  0  0  0
   44.1721   -0.0285   37.5459 H   0  0  0  0  0  0  0  0  0  0  0  0
   45.1937   -0.7782   32.2297 H   0  0  0  0  0  0  0  0  0  0  0  0
   43.7002    1.8279   39.4627 H   0  0  0  0  0  0  0  0  0  0  0  0
   43.9530    2.3806   37.7599 H   0  0  0  0  0  0  0  0  0  0  0  0
   41.8251    3.3324   37.9575 H   0  0  0  0  0  0  0  0  0  0  0  0
   41.4072    2.3277   39.4057 H   0  0  0  0  0  0  0  0  0  0  0  0
   42.8083   -3.2179   28.1664 H   0  0  0  0  0  0  0  0  0  0  0  0
  2  1  1  0
  3  1  2  0
  4  3  1  0
  5  3  1  0
  6  5  2  0
  7  6  1  0
  8  7  2  0
  8  1  1  0
 12  9  2  0
 13 10  1  0
 13  4  1  0
 15 12  1  0
 16 13  1  0
 18 17  1  0
 18 15  2  0
 19 16  1  0
 21 20  1  0
 21 18  1  0
 22 10  1  0
 22 19  1  0
 23  9  1  0
 23 21  2  0
 24 14  2  0
 24 11  1  0
 24  9  1  0
 25 20  2  0
 25  8  1  0
 25 17  1  0
  5 26  1  0
  6 27  1  0
  7 28  1  0
 10 29  1  0
 10 30  1  0
 11 31  1  0
 11 32  1  0
 12 33  1  0
 13 34  1  0
 14 35  1  0
 14 36  1  0
 15 37  1  0
 16 38  1  0
 16 39  1  0
 17 40  1  0
 19 41  1  0
 19 42  1  0
 22 43  1  0
 22 44  1  0
 23 45  1  0
M  CHG  2   2  -1  14   1
M  END
