
     RDKit          3D

 33 34  0  0  0  0  0  0  0  0999 V2000
   -2.1563    2.8853   24.1808 P   0  0  0  0  0  0  0  0  0  0  0  0
   -0.8727    3.0080   23.3959 O   0  0  0  0  0  0  0  0  0  0  0  0
   -2.2022    4.0551   25.3880 O   0  0  0  0  0  0  0  0  0  0  0  0
   -3.4952    3.0554   23.1737 O   0  0  0  0  0  0  0  0  0  0  0  0
   -2.3972    0.3311   24.1556 C   0  0  0  0  0  0  0  0  0  0  0  0
   -2.2545    1.4272   25.0129 O   0  0  0  0  0  0  0  0  0  0  0  0
   -0.9886   -0.2764   24.0703 C   0  0  1  0  0  0  0  0  0  0  0  0
   -0.8930   -1.1566   22.9757 O   0  0  0  0  0  0  0  0  0  0  0  0
    0.0879    0.8089   23.9286 C   0  0  1  0  0  0  0  0  0  0  0  0
    1.2708    0.3806   24.5611 O   0  0  0  0  0  0  0  0  0  0  0  0
    0.2705    0.8633   22.4357 C   0  0  1  0  0  0  0  0  0  0  0  0
    1.5632    1.2768   22.0713 O   0  0  0  0  0  0  0  0  0  0  0  0
    0.0117   -0.5939   22.0516 C   0  0  2  0  0  0  0  0  0  0  0  0
   -0.5586   -0.7198   20.7090 N   0  0  0  0  0  0  0  0  0  0  0  0
   -0.2704   -1.8029   19.9212 C   0  0  0  0  0  0  0  0  0  0  0  0
    0.5341   -2.6902   20.3085 O   0  0  0  0  0  0  0  0  0  0  0  0
   -0.8646   -1.9325   18.7118 N   0  0  0  0  0  0  0  0  0  0  0  0
   -1.7617   -1.0092   18.2908 C   0  0  0  0  0  0  0  0  0  0  0  0
   -2.3072   -1.1344   17.1664 O   0  0  0  0  0  0  0  0  0  0  0  0
   -2.0814    0.0726   19.1117 C   0  0  0  0  0  0  0  0  0  0  0  0
   -1.4716    0.1755   20.3135 N   0  0  0  0  0  0  0  0  0  0  0  0
   -3.1211    4.0059   25.7548 H   0  0  0  0  0  0  0  0  0  0  0  0
   -3.2330    3.7528   22.5212 H   0  0  0  0  0  0  0  0  0  0  0  0
   -3.0976   -0.4201   24.5852 H   0  0  0  0  0  0  0  0  0  0  0  0
   -2.7422    0.6510   23.1471 H   0  0  0  0  0  0  0  0  0  0  0  0
   -0.8098   -0.8604   25.0014 H   0  0  0  0  0  0  0  0  0  0  0  0
   -0.2303    1.8013   24.3271 H   0  0  0  0  0  0  0  0  0  0  0  0
    1.1166   -0.5544   24.8574 H   0  0  0  0  0  0  0  0  0  0  0  0
   -0.4912    1.5492   21.9982 H   0  0  0  0  0  0  0  0  0  0  0  0
    2.0700    1.3926   22.9171 H   0  0  0  0  0  0  0  0  0  0  0  0
    0.9748   -1.1464   22.1390 H   0  0  0  0  0  0  0  0  0  0  0  0
   -0.6369   -2.7525   18.1036 H   0  0  0  0  0  0  0  0  0  0  0  0
   -2.8069    0.8147   18.8043 H   0  0  0  0  0  0  0  0  0  0  0  0
  2  1  2  0
  3  1  1  0
  4  1  1  0
  6  5  1  0
  6  1  1  0
  7  5  1  0
  8  7  1  0
  9  7  1  0
  9 10  1  0
 11  9  1  0
 11 12  1  0
 13 11  1  0
 13  8  1  0
 13 14  1  0
 15 14  1  0
 16 15  2  0
 17 15  1  0
 18 17  1  0
 19 18  2  0
 20 18  1  0
 21 20  2  0
 21 14  1  0
  3 22  1  0
  4 23  1  0
  5 24  1  0
  5 25  1  0
  7 26  1  1
  9 27  1  1
 10 28  1  0
 11 29  1  6
 12 30  1  0
 13 31  1  6
 17 32  1  0
 20 33  1  0
M  END
