
     RDKit          3D

 38 39  0  0  0  0  0  0  0  0999 V2000
  -24.1327    4.8830  -12.0668 Cl  0  0  0  0  0  0  0  0  0  0  0  0
  -15.1078   10.8549  -10.1802 C   0  0  0  0  0  0  0  0  0  0  0  0
  -14.3690   11.9227   -9.5933 N   0  0  0  0  0  0  0  0  0  0  0  0
  -13.2769   11.6599   -8.8109 O   0  0  0  0  0  0  0  0  0  0  0  0
  -14.7157   13.1054   -9.7825 O   0  0  0  0  0  0  0  0  0  0  0  0
  -16.2217   11.1387  -10.9739 C   0  0  0  0  0  0  0  0  0  0  0  0
  -16.9654   10.1110  -11.5493 C   0  0  0  0  0  0  0  0  0  0  0  0
  -18.1287   10.5247  -12.4096 C   0  0  0  0  0  0  0  0  0  0  0  0
  -19.1400    9.4934  -12.4952 N   0  0  0  0  0  0  0  0  0  0  0  0
  -20.3183    9.4894  -11.7051 C   0  0  0  0  0  0  0  0  0  0  0  0
  -21.2765    8.3814  -11.8476 C   0  0  0  0  0  0  0  0  0  0  0  0
  -21.7866    7.7814  -10.6914 C   0  0  0  0  0  0  0  0  0  0  0  0
  -22.6578    6.7030  -10.7735 C   0  0  0  0  0  0  0  0  0  0  0  0
  -23.0349    6.2155  -12.0150 C   0  0  0  0  0  0  0  0  0  0  0  0
  -22.5360    6.7887  -13.1827 C   0  0  0  0  0  0  0  0  0  0  0  0
  -21.6430    7.8739  -13.1133 C   0  0  0  0  0  0  0  0  0  0  0  0
  -21.1304    8.4663  -14.2735 O   0  0  0  0  0  0  0  0  0  0  0  0
  -20.1589    7.8490  -15.1170 C   0  0  0  0  0  0  0  0  0  0  0  0
  -18.7846    8.3286  -14.7709 C   0  0  0  0  0  0  0  0  0  0  0  0
  -17.8737    7.5036  -14.5073 O   0  0  0  0  0  0  0  0  0  0  0  0
  -18.4744    9.6692  -14.8287 O   0  0  0  0  0  0  0  0  0  0  0  0
  -20.4947   10.3775  -10.8295 O   0  0  0  0  0  0  0  0  0  0  0  0
  -16.5788    8.7718  -11.3316 C   0  0  0  0  0  0  0  0  0  0  0  0
  -15.4629    8.4837  -10.5420 C   0  0  0  0  0  0  0  0  0  0  0  0
  -14.7291    9.5214   -9.9669 C   0  0  0  0  0  0  0  0  0  0  0  0
  -16.5180   12.1666  -11.1485 H   0  0  0  0  0  0  0  0  0  0  0  0
  -17.7569   10.7294  -13.4369 H   0  0  0  0  0  0  0  0  0  0  0  0
  -18.5621   11.4726  -12.0225 H   0  0  0  0  0  0  0  0  0  0  0  0
  -18.8814    8.6252  -12.9861 H   0  0  0  0  0  0  0  0  0  0  0  0
  -21.4984    8.1456   -9.7124 H   0  0  0  0  0  0  0  0  0  0  0  0
  -23.0408    6.2526   -9.8661 H   0  0  0  0  0  0  0  0  0  0  0  0
  -22.8665    6.3824  -14.1256 H   0  0  0  0  0  0  0  0  0  0  0  0
  -20.3672    8.1636  -16.1605 H   0  0  0  0  0  0  0  0  0  0  0  0
  -20.2251    6.7434  -15.1044 H   0  0  0  0  0  0  0  0  0  0  0  0
  -17.6422    9.9932  -15.3071 H   0  0  0  0  0  0  0  0  0  0  0  0
  -17.1339    7.9467  -11.7565 H   0  0  0  0  0  0  0  0  0  0  0  0
  -15.1694    7.4554  -10.3740 H   0  0  0  0  0  0  0  0  0  0  0  0
  -13.8691    9.2787   -9.3562 H   0  0  0  0  0  0  0  0  0  0  0  0
  3  2  1  0
  4  3  1  0
  5  3  2  0
  6  2  2  0
  7  6  1  0
  8  7  1  0
  9  8  1  0
 10  9  1  0
 11 10  1  0
 12 11  2  0
 13 12  1  0
 14  1  1  0
 14 13  2  0
 15 14  1  0
 16 15  2  0
 16 11  1  0
 17 16  1  0
 18 17  1  0
 19 18  1  0
 20 19  2  0
 21 19  1  0
 22 10  2  0
 23  7  2  0
 24 23  1  0
 25 24  2  0
 25  2  1  0
  6 26  1  0
  8 27  1  0
  8 28  1  0
  9 29  1  0
 12 30  1  0
 13 31  1  0
 15 32  1  0
 18 33  1  0
 18 34  1  0
 21 35  1  0
 23 36  1  0
 24 37  1  0
 25 38  1  0
M  CHG  2   3   1   4  -1
M  END
