
     RDKit          3D

 14 13  0  0  0  0  0  0  0  0999 V2000
   75.2806  -40.1118   61.5031 P   0  0  0  0  0  5  0  0  0  0  0  0
   76.9295  -39.8180   61.3382 O   0  0  0  0  0  0  0  0  0  0  0  0
   74.9646  -41.4965   60.9964 O   0  0  0  0  0  0  0  0  0  0  0  0
   74.9291  -39.9682   63.1344 O   0  0  0  0  0  0  0  0  0  0  0  0
   74.4158  -38.9597   60.6447 O   0  0  0  0  0  0  0  0  0  0  0  0
   77.4990  -38.2818   59.6867 C   0  0  0  0  0  0  0  0  0  0  0  0
   76.5624  -37.4485   59.8052 O   0  0  0  0  0  0  0  0  0  0  0  0
   77.2559  -39.7156   59.9772 C   0  0  0  0  0  0  0  0  0  0  0  0
   78.7596  -37.8630   59.3073 O   0  0  0  0  0  0  0  0  0  0  0  0
   75.7183  -40.3479   63.5970 H   0  0  0  0  0  0  0  0  0  0  0  0
   74.7812  -38.0913   60.9501 H   0  0  0  0  0  0  0  0  0  0  0  0
   76.4548  -40.0560   59.2800 H   0  0  0  0  0  0  0  0  0  0  0  0
   78.1770  -40.3038   59.7748 H   0  0  0  0  0  0  0  0  0  0  0  0
   79.5896  -38.2901   59.7010 H   0  0  0  0  0  0  0  0  0  0  0  0
  2  1  1  0
  3  1  2  0
  4  1  1  0
  5  1  1  0
  7  6  2  0
  8  6  1  0
  8  2  1  0
  9  6  1  0
  4 10  1  0
  5 11  1  0
  8 12  1  0
  8 13  1  0
  9 14  1  0
M  END
