
     RDKit          3D

 14 13  0  0  0  0  0  0  0  0999 V2000
   84.0248  -12.4644   66.3220 P   0  0  0  0  0  0  0  0  0  0  0  0
   85.4118  -13.1507   65.6635 O   0  0  0  0  0  0  0  0  0  0  0  0
   83.5963  -13.2567   67.5314 O   0  0  0  0  0  0  0  0  0  0  0  0
   84.4305  -10.8927   66.7347 O   0  0  0  0  0  0  0  0  0  0  0  0
   82.8065  -12.4383   65.1703 O   0  0  0  0  0  0  0  0  0  0  0  0
   86.1992  -15.2898   66.0847 C   0  0  0  0  0  0  0  0  0  0  0  0
   86.9600  -16.0620   65.4442 O   0  0  0  0  0  0  0  0  0  0  0  0
   85.1750  -14.4989   65.3614 C   0  0  0  0  0  0  0  0  0  0  0  0
   86.3395  -15.1494   67.4526 O   0  0  0  0  0  0  0  0  0  0  0  0
   85.0517  -10.9851   67.5005 H   0  0  0  0  0  0  0  0  0  0  0  0
   83.0107  -11.6507   64.6056 H   0  0  0  0  0  0  0  0  0  0  0  0
   85.2761  -14.7455   64.2783 H   0  0  0  0  0  0  0  0  0  0  0  0
   84.1584  -14.7861   65.7077 H   0  0  0  0  0  0  0  0  0  0  0  0
   85.6412  -15.5181   68.0872 H   0  0  0  0  0  0  0  0  0  0  0  0
  2  1  1  0
  3  1  2  0
  4  1  1  0
  5  1  1  0
  7  6  2  0
  8  6  1  0
  8  2  1  0
  9  6  1  0
  4 10  1  0
  5 11  1  0
  8 12  1  0
  8 13  1  0
  9 14  1  0
M  END
