
     RDKit          3D

 14 13  0  0  0  0  0  0  0  0999 V2000
   28.0073   21.2648   -0.7413 P   0  0  0  0  0  0  0  0  0  0  0  0
   29.8879   21.0827    0.9996 C   0  0  0  0  0  0  0  0  0  0  0  0
   27.0835   21.4054    0.6886 O   0  0  0  0  0  0  0  0  0  0  0  0
   27.2830   20.0501   -1.7835 S   0  0  0  0  0  0  0  0  0  0  0  0
   26.7526   20.1325    1.1871 C   0  0  0  0  0  0  0  0  0  0  0  0
   29.5670   20.7141   -0.3209 O   0  0  0  0  0  0  0  0  0  0  0  0
   28.1431   22.7651   -1.5437 O   0  0  0  0  0  0  0  0  0  0  0  0
   30.5917   20.3334    1.4162 H   0  0  0  0  0  0  0  0  0  0  0  0
   30.3907   22.0746    1.0303 H   0  0  0  0  0  0  0  0  0  0  0  0
   28.9790   21.0860    1.6388 H   0  0  0  0  0  0  0  0  0  0  0  0
   26.4643   19.4828    0.3357 H   0  0  0  0  0  0  0  0  0  0  0  0
   27.6278   19.6638    1.6880 H   0  0  0  0  0  0  0  0  0  0  0  0
   25.8834   20.1890    1.8788 H   0  0  0  0  0  0  0  0  0  0  0  0
   27.3115   23.2518   -1.3147 H   0  0  0  0  0  0  0  0  0  0  0  0
  3  1  1  0
  4  1  2  0
  5  3  1  0
  6  2  1  0
  6  1  1  0
  7  1  1  0
  2  8  1  0
  2  9  1  0
  2 10  1  0
  5 11  1  0
  5 12  1  0
  5 13  1  0
  7 14  1  0
M  END
