
     RDKit          3D

 74 73  0  0  0  0  0  0  0  0999 V2000
   21.4165    9.1190   63.1669 O   0  0  0  0  0  0  0  0  0  0  0  0
   21.2986    9.0393   61.7955 C   0  0  0  0  0  0  0  0  0  0  0  0
   21.9314    9.8439   61.0620 O   0  0  0  0  0  0  0  0  0  0  0  0
   20.4638    7.9507   61.2237 C   0  0  0  0  0  0  0  0  0  0  0  0
   20.2118    8.0908   59.7201 C   0  0  2  0  0  0  0  0  0  0  0  0
   19.1426    9.1718   59.4204 C   0  0  0  0  0  0  0  0  0  0  0  0
   19.0808    9.6468   58.0045 N   0  0  0  0  0  0  0  0  0  0  0  0
   18.2250   10.8532   57.8816 C   0  0  0  0  0  0  0  0  0  0  0  0
   18.4618    8.5660   57.2019 C   0  0  0  0  0  0  0  0  0  0  0  0
   20.4276    9.9203   57.4477 C   0  0  0  0  0  0  0  0  0  0  0  0
   19.7010    6.8099   59.2947 N   0  0  0  0  0  0  0  0  0  0  0  0
   20.4534    5.8897   58.5333 C   0  0  0  0  0  0  0  0  0  0  0  0
   21.5003    6.2485   57.9211 O   0  0  0  0  0  0  0  0  0  0  0  0
   19.9371    4.4918   58.5061 C   0  0  0  0  0  0  0  0  0  0  0  0
   20.8449    3.5319   57.7486 C   0  0  0  0  0  0  0  0  0  0  0  0
   20.5073    3.3271   56.2633 C   0  0  0  0  0  0  0  0  0  0  0  0
   19.5061    4.3132   55.6472 C   0  0  0  0  0  0  0  0  0  0  0  0
   19.6967    4.5417   54.1526 C   0  0  0  0  0  0  0  0  0  0  0  0
   20.0633    3.4035   53.2498 C   0  0  0  0  0  0  0  0  0  0  0  0
   21.4452    3.1120   52.7534 C   0  0  0  0  0  0  0  0  0  0  0  0
   21.8783    3.5424   51.3452 C   0  0  0  0  0  0  0  0  0  0  0  0
   22.5820    2.4081   50.5836 C   0  0  0  0  0  0  0  0  0  0  0  0
   23.5331    2.9156   49.4879 C   0  0  0  0  0  0  0  0  0  0  0  0
   22.8196    3.1818   48.1524 C   0  0  0  0  0  0  0  0  0  0  0  0
   23.7787    2.9464   46.9813 C   0  0  0  0  0  0  0  0  0  0  0  0
   23.1329    3.2697   45.6328 C   0  0  0  0  0  0  0  0  0  0  0  0
   21.7322    2.6423   45.5511 C   0  0  0  0  0  0  0  0  0  0  0  0
   20.8215    3.4159   44.6061 C   0  0  0  0  0  0  0  0  0  0  0  0
   19.4972    7.9059   61.7726 H   0  0  0  0  0  0  0  0  0  0  0  0
   21.0017    6.9966   61.4199 H   0  0  0  0  0  0  0  0  0  0  0  0
   21.1727    8.3141   59.2163 H   0  0  0  0  0  0  0  0  0  0  0  0
   19.3361   10.0444   60.0862 H   0  0  0  0  0  0  0  0  0  0  0  0
   18.1471    8.7827   59.7394 H   0  0  0  0  0  0  0  0  0  0  0  0
   17.2400   10.7011   58.3767 H   0  0  0  0  0  0  0  0  0  0  0  0
   18.7050   11.7505   58.3240 H   0  0  0  0  0  0  0  0  0  0  0  0
   18.0354   11.1006   56.8128 H   0  0  0  0  0  0  0  0  0  0  0  0
   17.6809    8.9687   56.5175 H   0  0  0  0  0  0  0  0  0  0  0  0
   17.9840    7.8023   57.8566 H   0  0  0  0  0  0  0  0  0  0  0  0
   19.2167    8.0405   56.5740 H   0  0  0  0  0  0  0  0  0  0  0  0
   21.1295    9.0842   57.6632 H   0  0  0  0  0  0  0  0  0  0  0  0
   20.8492   10.8626   57.8491 H   0  0  0  0  0  0  0  0  0  0  0  0
   20.3855   10.0541   56.3433 H   0  0  0  0  0  0  0  0  0  0  0  0
   18.7813    6.4937   59.6829 H   0  0  0  0  0  0  0  0  0  0  0  0
   18.8834    4.4545   58.1586 H   0  0  0  0  0  0  0  0  0  0  0  0
   19.9069    4.1506   59.5643 H   0  0  0  0  0  0  0  0  0  0  0  0
   21.9141    3.8173   57.8645 H   0  0  0  0  0  0  0  0  0  0  0  0
   20.7670    2.5375   58.2423 H   0  0  0  0  0  0  0  0  0  0  0  0
   20.1194    2.2949   56.1153 H   0  0  0  0  0  0  0  0  0  0  0  0
   21.4671    3.3834   55.7080 H   0  0  0  0  0  0  0  0  0  0  0  0
   18.4760    3.9339   55.8272 H   0  0  0  0  0  0  0  0  0  0  0  0
   19.5810    5.3182   56.1073 H   0  0  0  0  0  0  0  0  0  0  0  0
   20.4766    5.3245   54.0227 H   0  0  0  0  0  0  0  0  0  0  0  0
   18.7575    5.0077   53.7771 H   0  0  0  0  0  0  0  0  0  0  0  0
   19.6712    2.4776   53.7260 H   0  0  0  0  0  0  0  0  0  0  0  0
   19.4229    3.4890   52.3437 H   0  0  0  0  0  0  0  0  0  0  0  0
   22.1503    3.5869   53.4691 H   0  0  0  0  0  0  0  0  0  0  0  0
   21.6360    2.0233   52.8876 H   0  0  0  0  0  0  0  0  0  0  0  0
   22.5797    4.4014   51.4376 H   0  0  0  0  0  0  0  0  0  0  0  0
   21.0034    3.8975   50.7591 H   0  0  0  0  0  0  0  0  0  0  0  0
   23.2038    1.8361   51.3079 H   0  0  0  0  0  0  0  0  0  0  0  0
   21.8306    1.6989   50.1731 H   0  0  0  0  0  0  0  0  0  0  0  0
   24.3022    2.1239   49.3427 H   0  0  0  0  0  0  0  0  0  0  0  0
   24.0773    3.8274   49.8180 H   0  0  0  0  0  0  0  0  0  0  0  0
   21.9489    2.5015   48.0275 H   0  0  0  0  0  0  0  0  0  0  0  0
   22.4450    4.2287   48.1403 H   0  0  0  0  0  0  0  0  0  0  0  0
   24.1039    1.8820   46.9824 H   0  0  0  0  0  0  0  0  0  0  0  0
   24.6769    3.5897   47.1161 H   0  0  0  0  0  0  0  0  0  0  0  0
   23.0683    4.3762   45.5337 H   0  0  0  0  0  0  0  0  0  0  0  0
   23.7597    2.8809   44.8005 H   0  0  0  0  0  0  0  0  0  0  0  0
   21.2454    2.6366   46.5515 H   0  0  0  0  0  0  0  0  0  0  0  0
   21.8167    1.5883   45.2076 H   0  0  0  0  0  0  0  0  0  0  0  0
   19.8333    2.9129   44.5458 H   0  0  0  0  0  0  0  0  0  0  0  0
   20.6697    4.4524   44.9764 H   0  0  0  0  0  0  0  0  0  0  0  0
   21.2659    3.4504   43.5886 H   0  0  0  0  0  0  0  0  0  0  0  0
  2  1  1  0
  3  2  2  0
  4  2  1  0
  5  4  1  0
  6  5  1  0
  7  6  1  0
  7  8  1  0
  9  7  1  0
 10  7  1  0
 11  5  1  0
 12 11  1  0
 13 12  2  0
 14 12  1  0
 15 14  1  0
 16 15  1  0
 17 16  1  0
 18 17  1  0
 19 18  1  0
 20 19  1  0
 21 20  1  0
 22 21  1  0
 23 22  1  0
 24 23  1  0
 25 24  1  0
 26 25  1  0
 27 26  1  0
 28 27  1  0
  4 29  1  0
  4 30  1  0
  5 31  1  6
  6 32  1  0
  6 33  1  0
  8 34  1  0
  8 35  1  0
  8 36  1  0
  9 37  1  0
  9 38  1  0
  9 39  1  0
 10 40  1  0
 10 41  1  0
 10 42  1  0
 11 43  1  0
 14 44  1  0
 14 45  1  0
 15 46  1  0
 15 47  1  0
 16 48  1  0
 16 49  1  0
 17 50  1  0
 17 51  1  0
 18 52  1  0
 18 53  1  0
 19 54  1  0
 19 55  1  0
 20 56  1  0
 20 57  1  0
 21 58  1  0
 21 59  1  0
 22 60  1  0
 22 61  1  0
 23 62  1  0
 23 63  1  0
 24 64  1  0
 24 65  1  0
 25 66  1  0
 25 67  1  0
 26 68  1  0
 26 69  1  0
 27 70  1  0
 27 71  1  0
 28 72  1  0
 28 73  1  0
 28 74  1  0
M  CHG  2   1  -1   7   1
M  END
