
     RDKit          3D

 74 73  0  0  0  0  0  0  0  0999 V2000
   21.5014    8.7479   62.7725 O   0  0  0  0  0  0  0  0  0  0  0  0
   21.3796    8.6719   61.4012 C   0  0  0  0  0  0  0  0  0  0  0  0
   22.0077    9.4807   60.6682 O   0  0  0  0  0  0  0  0  0  0  0  0
   20.5463    7.5825   60.8286 C   0  0  0  0  0  0  0  0  0  0  0  0
   20.2894    7.7265   59.3262 C   0  0  2  0  0  0  0  0  0  0  0  0
   19.2159    8.8051   59.0331 C   0  0  0  0  0  0  0  0  0  0  0  0
   19.1485    9.2842   57.6188 N   0  0  0  0  0  0  0  0  0  0  0  0
   19.5394   10.7125   57.5184 C   0  0  0  0  0  0  0  0  0  0  0  0
   17.7386    9.1662   57.1785 C   0  0  0  0  0  0  0  0  0  0  0  0
   19.9848    8.4633   56.7103 C   0  0  0  0  0  0  0  0  0  0  0  0
   19.7811    6.4452   58.8985 N   0  0  0  0  0  0  0  0  0  0  0  0
   20.5339    5.5297   58.1321 C   0  0  0  0  0  0  0  0  0  0  0  0
   21.5780    5.8934   57.5178 O   0  0  0  0  0  0  0  0  0  0  0  0
   20.0218    4.1303   58.1021 C   0  0  0  0  0  0  0  0  0  0  0  0
   20.9302    3.1755   57.3390 C   0  0  0  0  0  0  0  0  0  0  0  0
   20.5888    2.9741   55.8541 C   0  0  0  0  0  0  0  0  0  0  0  0
   19.5827    3.9590   55.2441 C   0  0  0  0  0  0  0  0  0  0  0  0
   19.7681    4.1926   53.7496 C   0  0  0  0  0  0  0  0  0  0  0  0
   20.1353    3.0583   52.8422 C   0  0  0  0  0  0  0  0  0  0  0  0
   21.5166    2.7724   52.3408 C   0  0  0  0  0  0  0  0  0  0  0  0
   21.9441    3.2084   50.9326 C   0  0  0  0  0  0  0  0  0  0  0  0
   22.5636    2.0524   50.1314 C   0  0  0  0  0  0  0  0  0  0  0  0
   23.3753    2.5272   48.9155 C   0  0  0  0  0  0  0  0  0  0  0  0
   22.5080    2.7448   47.6649 C   0  0  0  0  0  0  0  0  0  0  0  0
   23.3253    2.4746   46.3978 C   0  0  0  0  0  0  0  0  0  0  0  0
   22.5232    2.7492   45.1245 C   0  0  0  0  0  0  0  0  0  0  0  0
   23.3030    2.2657   43.8914 C   0  0  0  0  0  0  0  0  0  0  0  0
   22.3720    1.9045   42.7408 C   0  0  0  0  0  0  0  0  0  0  0  0
   19.5815    7.5332   61.3803 H   0  0  0  0  0  0  0  0  0  0  0  0
   21.0877    6.6295   61.0203 H   0  0  0  0  0  0  0  0  0  0  0  0
   21.2480    7.9542   58.8202 H   0  0  0  0  0  0  0  0  0  0  0  0
   19.4088    9.6762   59.7009 H   0  0  0  0  0  0  0  0  0  0  0  0
   18.2226    8.4120   59.3539 H   0  0  0  0  0  0  0  0  0  0  0  0
   18.9888   11.3343   58.2591 H   0  0  0  0  0  0  0  0  0  0  0  0
   20.6277   10.8581   57.6782 H   0  0  0  0  0  0  0  0  0  0  0  0
   19.3203   11.1156   56.5040 H   0  0  0  0  0  0  0  0  0  0  0  0
   17.6295    8.4017   56.3760 H   0  0  0  0  0  0  0  0  0  0  0  0
   17.3582   10.1355   56.7836 H   0  0  0  0  0  0  0  0  0  0  0  0
   17.0725    8.8650   58.0187 H   0  0  0  0  0  0  0  0  0  0  0  0
   19.8135    7.3767   56.8776 H   0  0  0  0  0  0  0  0  0  0  0  0
   21.0623    8.6862   56.8382 H   0  0  0  0  0  0  0  0  0  0  0  0
   19.7547    8.6846   55.6438 H   0  0  0  0  0  0  0  0  0  0  0  0
   18.8635    6.1251   59.2886 H   0  0  0  0  0  0  0  0  0  0  0  0
   18.9672    4.0909   57.7578 H   0  0  0  0  0  0  0  0  0  0  0  0
   19.9959    3.7858   59.1595 H   0  0  0  0  0  0  0  0  0  0  0  0
   21.9989    3.4637   57.4525 H   0  0  0  0  0  0  0  0  0  0  0  0
   20.8568    2.1793   57.8300 H   0  0  0  0  0  0  0  0  0  0  0  0
   20.2035    1.9412   55.7042 H   0  0  0  0  0  0  0  0  0  0  0  0
   21.5467    3.0350   55.2961 H   0  0  0  0  0  0  0  0  0  0  0  0
   18.5543    3.5761   55.4260 H   0  0  0  0  0  0  0  0  0  0  0  0
   19.6559    4.9628   55.7070 H   0  0  0  0  0  0  0  0  0  0  0  0
   20.5452    4.9781   53.6197 H   0  0  0  0  0  0  0  0  0  0  0  0
   18.8264    4.6569   53.3783 H   0  0  0  0  0  0  0  0  0  0  0  0
   19.7475    2.1297   53.3168 H   0  0  0  0  0  0  0  0  0  0  0  0
   19.4919    3.1445   51.9383 H   0  0  0  0  0  0  0  0  0  0  0  0
   22.2224    3.2473   53.0558 H   0  0  0  0  0  0  0  0  0  0  0  0
   21.7111    1.6839   52.4711 H   0  0  0  0  0  0  0  0  0  0  0  0
   22.6966    4.0228   51.0273 H   0  0  0  0  0  0  0  0  0  0  0  0
   21.0793    3.6270   50.3740 H   0  0  0  0  0  0  0  0  0  0  0  0
   23.2709    1.5082   50.7961 H   0  0  0  0  0  0  0  0  0  0  0  0
   21.7754    1.3262   49.8356 H   0  0  0  0  0  0  0  0  0  0  0  0
   24.1289    1.7348   48.7072 H   0  0  0  0  0  0  0  0  0  0  0  0
   23.9465    3.4522   49.1493 H   0  0  0  0  0  0  0  0  0  0  0  0
   21.6346    2.0566   47.6656 H   0  0  0  0  0  0  0  0  0  0  0  0
   22.1254    3.7889   47.6625 H   0  0  0  0  0  0  0  0  0  0  0  0
   23.6576    1.4124   46.3957 H   0  0  0  0  0  0  0  0  0  0  0  0
   24.2275    3.1264   46.4050 H   0  0  0  0  0  0  0  0  0  0  0  0
   21.5510    2.2134   45.2027 H   0  0  0  0  0  0  0  0  0  0  0  0
   22.3150    3.8371   45.0253 H   0  0  0  0  0  0  0  0  0  0  0  0
   23.8987    1.3580   44.1345 H   0  0  0  0  0  0  0  0  0  0  0  0
   24.0095    3.0592   43.5641 H   0  0  0  0  0  0  0  0  0  0  0  0
   22.9720    1.5954   41.8589 H   0  0  0  0  0  0  0  0  0  0  0  0
   21.7073    1.0626   43.0300 H   0  0  0  0  0  0  0  0  0  0  0  0
   21.7522    2.7824   42.4596 H   0  0  0  0  0  0  0  0  0  0  0  0
  2  1  1  0
  3  2  2  0
  4  2  1  0
  5  4  1  0
  6  5  1  0
  7  6  1  0
  7  8  1  0
  9  7  1  0
 10  7  1  0
 11  5  1  0
 12 11  1  0
 13 12  2  0
 14 12  1  0
 15 14  1  0
 16 15  1  0
 17 16  1  0
 18 17  1  0
 19 18  1  0
 20 19  1  0
 21 20  1  0
 22 21  1  0
 23 22  1  0
 24 23  1  0
 25 24  1  0
 26 25  1  0
 27 26  1  0
 28 27  1  0
  4 29  1  0
  4 30  1  0
  5 31  1  6
  6 32  1  0
  6 33  1  0
  8 34  1  0
  8 35  1  0
  8 36  1  0
  9 37  1  0
  9 38  1  0
  9 39  1  0
 10 40  1  0
 10 41  1  0
 10 42  1  0
 11 43  1  0
 14 44  1  0
 14 45  1  0
 15 46  1  0
 15 47  1  0
 16 48  1  0
 16 49  1  0
 17 50  1  0
 17 51  1  0
 18 52  1  0
 18 53  1  0
 19 54  1  0
 19 55  1  0
 20 56  1  0
 20 57  1  0
 21 58  1  0
 21 59  1  0
 22 60  1  0
 22 61  1  0
 23 62  1  0
 23 63  1  0
 24 64  1  0
 24 65  1  0
 25 66  1  0
 25 67  1  0
 26 68  1  0
 26 69  1  0
 27 70  1  0
 27 71  1  0
 28 72  1  0
 28 73  1  0
 28 74  1  0
M  CHG  2   1  -1   7   1
M  END
