
     RDKit          3D

 74 73  0  0  0  0  0  0  0  0999 V2000
   38.4162  -21.9947   14.5778 O   0  0  0  0  0  0  0  0  0  0  0  0
   38.4824  -21.9442   15.9547 C   0  0  0  0  0  0  0  0  0  0  0  0
   37.6596  -22.5993   16.6458 O   0  0  0  0  0  0  0  0  0  0  0  0
   39.5863  -21.1677   16.5813 C   0  0  0  0  0  0  0  0  0  0  0  0
   39.4722  -21.0415   18.1078 C   0  0  2  0  0  0  0  0  0  0  0  0
   38.4554  -19.9269   18.4595 C   0  0  0  0  0  0  0  0  0  0  0  0
   37.9485  -19.8910   19.8640 N   0  0  0  0  0  0  0  0  0  0  0  0
   37.1649  -21.1061   20.1891 C   0  0  0  0  0  0  0  0  0  0  0  0
   37.0432  -18.7181   19.9548 C   0  0  0  0  0  0  0  0  0  0  0  0
   39.0390  -19.7309   20.8564 C   0  0  0  0  0  0  0  0  0  0  0  0
   40.7917  -20.6537   18.5744 N   0  0  0  0  0  0  0  0  0  0  0  0
   41.6163  -21.4630   19.4021 C   0  0  0  0  0  0  0  0  0  0  0  0
   41.1600  -22.5054   19.9476 O   0  0  0  0  0  0  0  0  0  0  0  0
   43.0551  -21.0736   19.5467 C   0  0  0  0  0  0  0  0  0  0  0  0
   43.6603  -21.4398   20.9031 C   0  0  0  0  0  0  0  0  0  0  0  0
   43.2534  -20.4504   22.0052 C   0  0  0  0  0  0  0  0  0  0  0  0
   44.4483  -20.0202   22.8688 C   0  0  0  0  0  0  0  0  0  0  0  0
   44.8043  -21.0693   23.9224 C   0  0  0  0  0  0  0  0  0  0  0  0
   43.9851  -20.8593   25.2013 C   0  0  0  0  0  0  0  0  0  0  0  0
   44.6068  -21.6483   26.3535 C   0  0  0  0  0  0  0  0  0  0  0  0
   43.9373  -21.3549   27.6997 C   0  0  0  0  0  0  0  0  0  0  0  0
   42.6737  -22.1871   27.8745 C   0  0  0  0  0  0  0  0  0  0  0  0
   42.2955  -22.3352   29.3460 C   0  0  0  0  0  0  0  0  0  0  0  0
   43.5727  -22.2753   30.1749 C   0  0  0  0  0  0  0  0  0  0  0  0
   43.3851  -21.4622   31.4460 C   0  0  0  0  0  0  0  0  0  0  0  0
   43.7921  -22.3119   32.6477 C   0  0  0  0  0  0  0  0  0  0  0  0
   43.9364  -21.4540   33.8993 C   0  0  0  0  0  0  0  0  0  0  0  0
   42.6926  -21.5730   34.7682 C   0  0  0  0  0  0  0  0  0  0  0  0
   40.5296  -21.7013   16.3300 H   0  0  0  0  0  0  0  0  0  0  0  0
   39.6444  -20.1629   16.1072 H   0  0  0  0  0  0  0  0  0  0  0  0
   39.1801  -22.0195   18.5391 H   0  0  0  0  0  0  0  0  0  0  0  0
   37.5851  -20.0298   17.7698 H   0  0  0  0  0  0  0  0  0  0  0  0
   38.9162  -18.9455   18.1963 H   0  0  0  0  0  0  0  0  0  0  0  0
   36.6556  -21.0009   21.1735 H   0  0  0  0  0  0  0  0  0  0  0  0
   36.3845  -21.2983   19.4193 H   0  0  0  0  0  0  0  0  0  0  0  0
   37.8094  -22.0070   20.2624 H   0  0  0  0  0  0  0  0  0  0  0  0
   36.1992  -18.7989   19.2326 H   0  0  0  0  0  0  0  0  0  0  0  0
   36.6007  -18.6272   20.9726 H   0  0  0  0  0  0  0  0  0  0  0  0
   37.5898  -17.7704   19.7469 H   0  0  0  0  0  0  0  0  0  0  0  0
   38.6318  -19.4785   21.8612 H   0  0  0  0  0  0  0  0  0  0  0  0
   39.6143  -20.6685   20.9837 H   0  0  0  0  0  0  0  0  0  0  0  0
   39.7362  -18.9173   20.5564 H   0  0  0  0  0  0  0  0  0  0  0  0
   41.1870  -19.7538   18.2151 H   0  0  0  0  0  0  0  0  0  0  0  0
   43.1900  -19.9865   19.3572 H   0  0  0  0  0  0  0  0  0  0  0  0
   43.6214  -21.6104   18.7556 H   0  0  0  0  0  0  0  0  0  0  0  0
   44.7666  -21.4124   20.7920 H   0  0  0  0  0  0  0  0  0  0  0  0
   43.3857  -22.4784   21.1850 H   0  0  0  0  0  0  0  0  0  0  0  0
   42.4528  -20.8919   22.6386 H   0  0  0  0  0  0  0  0  0  0  0  0
   42.8358  -19.5357   21.5299 H   0  0  0  0  0  0  0  0  0  0  0  0
   44.1792  -19.0770   23.3933 H   0  0  0  0  0  0  0  0  0  0  0  0
   45.3267  -19.8019   22.2223 H   0  0  0  0  0  0  0  0  0  0  0  0
   45.8875  -20.9842   24.1551 H   0  0  0  0  0  0  0  0  0  0  0  0
   44.6119  -22.0897   23.5237 H   0  0  0  0  0  0  0  0  0  0  0  0
   43.9788  -19.7793   25.4688 H   0  0  0  0  0  0  0  0  0  0  0  0
   42.9370  -21.1899   25.0335 H   0  0  0  0  0  0  0  0  0  0  0  0
   44.6039  -22.7367   26.1235 H   0  0  0  0  0  0  0  0  0  0  0  0
   45.6735  -21.3455   26.4489 H   0  0  0  0  0  0  0  0  0  0  0  0
   44.6677  -21.6219   28.4954 H   0  0  0  0  0  0  0  0  0  0  0  0
   43.7071  -20.2725   27.8111 H   0  0  0  0  0  0  0  0  0  0  0  0
   41.8401  -21.7110   27.3123 H   0  0  0  0  0  0  0  0  0  0  0  0
   42.8357  -23.2050   27.4532 H   0  0  0  0  0  0  0  0  0  0  0  0
   41.7759  -23.3090   29.4845 H   0  0  0  0  0  0  0  0  0  0  0  0
   41.6178  -21.5146   29.6695 H   0  0  0  0  0  0  0  0  0  0  0  0
   43.8685  -23.3113   30.4605 H   0  0  0  0  0  0  0  0  0  0  0  0
   44.3955  -21.8375   29.5664 H   0  0  0  0  0  0  0  0  0  0  0  0
   42.3216  -21.1579   31.5656 H   0  0  0  0  0  0  0  0  0  0  0  0
   44.0144  -20.5467   31.3849 H   0  0  0  0  0  0  0  0  0  0  0  0
   43.0182  -23.0959   32.8083 H   0  0  0  0  0  0  0  0  0  0  0  0
   44.7656  -22.8157   32.4527 H   0  0  0  0  0  0  0  0  0  0  0  0
   44.8279  -21.7785   34.4793 H   0  0  0  0  0  0  0  0  0  0  0  0
   44.0668  -20.3860   33.6171 H   0  0  0  0  0  0  0  0  0  0  0  0
   42.5295  -22.6304   35.0677 H   0  0  0  0  0  0  0  0  0  0  0  0
   41.7986  -21.2028   34.2220 H   0  0  0  0  0  0  0  0  0  0  0  0
   42.8223  -20.9617   35.6861 H   0  0  0  0  0  0  0  0  0  0  0  0
  2  1  1  0
  3  2  2  0
  4  2  1  0
  5  4  1  0
  6  5  1  0
  7  6  1  0
  7  8  1  0
  9  7  1  0
 10  7  1  0
 11  5  1  0
 12 11  1  0
 13 12  2  0
 14 12  1  0
 15 14  1  0
 16 15  1  0
 17 16  1  0
 18 17  1  0
 19 18  1  0
 20 19  1  0
 21 20  1  0
 22 21  1  0
 23 22  1  0
 24 23  1  0
 25 24  1  0
 26 25  1  0
 27 26  1  0
 28 27  1  0
  4 29  1  0
  4 30  1  0
  5 31  1  1
  6 32  1  0
  6 33  1  0
  8 34  1  0
  8 35  1  0
  8 36  1  0
  9 37  1  0
  9 38  1  0
  9 39  1  0
 10 40  1  0
 10 41  1  0
 10 42  1  0
 11 43  1  0
 14 44  1  0
 14 45  1  0
 15 46  1  0
 15 47  1  0
 16 48  1  0
 16 49  1  0
 17 50  1  0
 17 51  1  0
 18 52  1  0
 18 53  1  0
 19 54  1  0
 19 55  1  0
 20 56  1  0
 20 57  1  0
 21 58  1  0
 21 59  1  0
 22 60  1  0
 22 61  1  0
 23 62  1  0
 23 63  1  0
 24 64  1  0
 24 65  1  0
 25 66  1  0
 25 67  1  0
 26 68  1  0
 26 69  1  0
 27 70  1  0
 27 71  1  0
 28 72  1  0
 28 73  1  0
 28 74  1  0
M  CHG  2   1  -1   7   1
M  END
