
     RDKit          3D

 29 28  0  0  0  0  0  0  0  0999 V2000
   56.2098  -19.4950   44.6723 P   0  0  0  0  0  0  0  0  0  0  0  0
   56.7737  -19.8224   46.2185 O   0  0  0  0  0  0  0  0  0  0  0  0
   57.3179  -18.5030   43.8843 O   0  0  0  0  0  0  0  0  0  0  0  0
   54.8781  -18.7847   44.7503 O   0  0  0  0  0  0  0  0  0  0  0  0
   58.5240  -25.2167   39.9855 C   0  0  0  0  0  0  0  0  0  0  0  0
   59.7661  -25.4812   39.3921 O   0  0  0  0  0  0  0  0  0  0  0  0
   58.1272  -23.7755   39.7896 C   0  0  0  0  0  0  0  0  0  0  0  0
   58.9282  -22.9831   39.3105 O   0  0  0  0  0  0  0  0  0  0  0  0
   56.7640  -23.2819   40.2350 C   0  0  1  0  0  0  0  0  0  0  0  0
   56.0044  -24.3488   40.7532 O   0  0  0  0  0  0  0  0  0  0  0  0
   56.9362  -22.2189   41.3304 C   0  0  2  0  0  0  0  0  0  0  0  0
   58.1299  -21.5112   41.0992 O   0  0  0  0  0  0  0  0  0  0  0  0
   56.8888  -22.8307   42.7566 C   0  0  2  0  0  0  0  0  0  0  0  0
   55.6227  -23.4120   42.9516 O   0  0  0  0  0  0  0  0  0  0  0  0
   57.1058  -21.7465   43.8232 C   0  0  0  0  0  0  0  0  0  0  0  0
   55.9640  -20.9266   43.8068 O   0  0  0  0  0  0  0  0  0  0  0  0
   56.9304  -18.9326   46.6244 H   0  0  0  0  0  0  0  0  0  0  0  0
   58.2004  -18.9115   44.0721 H   0  0  0  0  0  0  0  0  0  0  0  0
   57.7505  -25.8711   39.5262 H   0  0  0  0  0  0  0  0  0  0  0  0
   58.5797  -25.4289   41.0762 H   0  0  0  0  0  0  0  0  0  0  0  0
   59.9575  -26.4389   39.5692 H   0  0  0  0  0  0  0  0  0  0  0  0
   56.2525  -22.8205   39.3579 H   0  0  0  0  0  0  0  0  0  0  0  0
   55.5170  -24.7544   39.9893 H   0  0  0  0  0  0  0  0  0  0  0  0
   56.0934  -21.4974   41.2427 H   0  0  0  0  0  0  0  0  0  0  0  0
   58.0299  -21.0143   40.2454 H   0  0  0  0  0  0  0  0  0  0  0  0
   57.6884  -23.6009   42.8609 H   0  0  0  0  0  0  0  0  0  0  0  0
   55.7121  -24.0460   43.7105 H   0  0  0  0  0  0  0  0  0  0  0  0
   57.2140  -22.2255   44.8213 H   0  0  0  0  0  0  0  0  0  0  0  0
   58.0337  -21.1752   43.5923 H   0  0  0  0  0  0  0  0  0  0  0  0
  2  1  1  0
  3  1  1  0
  4  1  2  0
  6  5  1  0
  7  5  1  0
  8  7  2  0
  9  7  1  0
  9 10  1  0
 11  9  1  0
 11 12  1  0
 13 11  1  0
 13 14  1  0
 15 13  1  0
 16 15  1  0
 16  1  1  0
  2 17  1  0
  3 18  1  0
  5 19  1  0
  5 20  1  0
  6 21  1  0
  9 22  1  6
 10 23  1  0
 11 24  1  1
 12 25  1  0
 13 26  1  6
 14 27  1  0
 15 28  1  0
 15 29  1  0
M  END
