
     RDKit          3D

 29 28  0  0  0  0  0  0  0  0999 V2000
   45.9526  -47.6101   67.0540 P   0  0  0  0  0  0  0  0  0  0  0  0
   44.3154  -47.9686   66.9457 O   0  0  0  0  0  0  0  0  0  0  0  0
   46.7697  -48.9943   67.5482 O   0  0  0  0  0  0  0  0  0  0  0  0
   46.1659  -46.5201   68.0754 O   0  0  0  0  0  0  0  0  0  0  0  0
   45.4892  -48.5883   59.3502 C   0  0  0  0  0  0  0  0  0  0  0  0
   44.1611  -48.9491   59.0781 O   0  0  0  0  0  0  0  0  0  0  0  0
   45.7480  -48.6393   60.8297 C   0  0  0  0  0  0  0  0  0  0  0  0
   45.3617  -49.6094   61.4693 O   0  0  0  0  0  0  0  0  0  0  0  0
   46.4541  -47.5046   61.5448 C   0  0  1  0  0  0  0  0  0  0  0  0
   46.5575  -46.3825   60.7041 O   0  0  0  0  0  0  0  0  0  0  0  0
   45.6462  -47.1054   62.7908 C   0  0  2  0  0  0  0  0  0  0  0  0
   44.3140  -46.8286   62.4249 O   0  0  0  0  0  0  0  0  0  0  0  0
   46.2698  -45.9137   63.5522 C   0  0  2  0  0  0  0  0  0  0  0  0
   47.6672  -45.9457   63.4022 O   0  0  0  0  0  0  0  0  0  0  0  0
   45.9407  -46.0129   65.0466 C   0  0  0  0  0  0  0  0  0  0  0  0
   46.5929  -47.1527   65.5536 O   0  0  0  0  0  0  0  0  0  0  0  0
   44.2501  -48.6220   66.2042 H   0  0  0  0  0  0  0  0  0  0  0  0
   47.5960  -48.6602   67.9804 H   0  0  0  0  0  0  0  0  0  0  0  0
   45.6477  -47.5524   58.9845 H   0  0  0  0  0  0  0  0  0  0  0  0
   46.1999  -49.2602   58.8179 H   0  0  0  0  0  0  0  0  0  0  0  0
   44.1293  -49.9418   59.0791 H   0  0  0  0  0  0  0  0  0  0  0  0
   47.4627  -47.8590   61.8611 H   0  0  0  0  0  0  0  0  0  0  0  0
   47.5096  -46.3143   60.4308 H   0  0  0  0  0  0  0  0  0  0  0  0
   45.6326  -47.9776   63.4825 H   0  0  0  0  0  0  0  0  0  0  0  0
   44.3145  -46.0053   61.8697 H   0  0  0  0  0  0  0  0  0  0  0  0
   45.8515  -44.9505   63.1743 H   0  0  0  0  0  0  0  0  0  0  0  0
   47.8886  -45.3807   62.6165 H   0  0  0  0  0  0  0  0  0  0  0  0
   44.8368  -46.0498   65.1891 H   0  0  0  0  0  0  0  0  0  0  0  0
   46.3296  -45.1073   65.5620 H   0  0  0  0  0  0  0  0  0  0  0  0
  2  1  1  0
  3  1  1  0
  4  1  2  0
  6  5  1  0
  7  5  1  0
  8  7  2  0
  9  7  1  0
  9 10  1  0
 11  9  1  0
 11 12  1  0
 13 11  1  0
 13 14  1  0
 15 13  1  0
 16 15  1  0
 16  1  1  0
  2 17  1  0
  3 18  1  0
  5 19  1  0
  5 20  1  0
  6 21  1  0
  9 22  1  1
 10 23  1  0
 11 24  1  1
 12 25  1  0
 13 26  1  6
 14 27  1  0
 15 28  1  0
 15 29  1  0
M  END
