
     RDKit          3D

 15 16  0  0  0  0  0  0  0  0999 V2000
   30.5929   28.4150   14.1774 N   0  0  0  0  0  0  0  0  0  0  0  0
   30.0714   27.1523   14.0821 C   0  0  0  0  0  0  0  0  0  0  0  0
   30.5652   26.1313   14.8410 N   0  0  0  0  0  0  0  0  0  0  0  0
   31.5875   26.4139   15.6804 C   0  0  0  0  0  0  0  0  0  0  0  0
   32.1410   27.6440   15.7798 C   0  0  0  0  0  0  0  0  0  0  0  0
   31.6294   28.6933   15.0184 C   0  0  0  0  0  0  0  0  0  0  0  0
   32.1778   30.0056   15.0689 N   0  0  0  0  0  0  0  0  0  0  0  0
   33.2009   27.6122   16.6135 N   0  0  0  0  0  0  0  0  0  0  0  0
   33.2346   26.3101   17.0051 C   0  0  0  0  0  0  0  0  0  0  0  0
   32.2440   25.5576   16.4664 N   0  0  0  0  0  0  0  0  0  0  0  0
   29.2523   26.9634   13.4020 H   0  0  0  0  0  0  0  0  0  0  0  0
   31.7572   30.7395   15.6812 H   0  0  0  0  0  0  0  0  0  0  0  0
   33.0105   30.2500   14.4883 H   0  0  0  0  0  0  0  0  0  0  0  0
   33.9763   25.9157   17.6869 H   0  0  0  0  0  0  0  0  0  0  0  0
   32.0704   24.5361   16.5951 H   0  0  0  0  0  0  0  0  0  0  0  0
  2  1  2  0
  3  2  1  0
  4  3  2  0
  5  4  1  0
  6  1  1  0
  6  5  2  0
  7  6  1  0
  8  5  1  0
  9  8  2  0
 10  4  1  0
 10  9  1  0
  2 11  1  0
  7 12  1  0
  7 13  1  0
  9 14  1  0
 10 15  1  0
M  END
