
     RDKit          3D

 35 36  0  0  0  0  0  0  0  0999 V2000
    1.6243   30.5508    8.1805 P   0  0  0  0  0  0  0  0  0  0  0  0
    2.6418   29.5014    7.8137 O   0  0  0  0  0  0  0  0  0  0  0  0
    1.6276   31.7529    7.0026 O   0  0  0  0  0  0  0  0  0  0  0  0
    0.1079   29.8323    8.2769 O   0  0  0  0  0  0  0  0  0  0  0  0
    1.1027   31.8657   10.3296 C   0  0  0  0  0  0  0  0  0  0  0  0
    2.1349   31.2108    9.6492 O   0  0  0  0  0  0  0  0  0  0  0  0
    1.7616   32.5683   11.5310 C   0  0  1  0  0  0  0  0  0  0  0  0
    0.8121   33.3791   12.1824 O   0  0  0  0  0  0  0  0  0  0  0  0
    2.3654   31.5809   12.5494 C   0  0  1  0  0  0  0  0  0  0  0  0
    3.5597   32.1059   13.0835 O   0  0  0  0  0  0  0  0  0  0  0  0
    1.2845   31.5167   13.6043 C   0  0  1  0  0  0  0  0  0  0  0  0
    1.7670   31.1779   14.8865 O   0  0  0  0  0  0  0  0  0  0  0  0
    0.6843   32.9248   13.5070 C   0  0  2  0  0  0  0  0  0  0  0  0
   -0.7332   33.0064   13.9088 N   0  0  0  0  0  0  0  0  0  0  0  0
   -0.2854   34.8198   15.3229 O   0  0  0  0  0  0  0  0  0  0  0  0
   -1.7507   32.2545   13.2200 C   0  0  0  0  0  0  0  0  0  0  0  0
   -1.4565   31.4674   12.2860 O   0  0  0  0  0  0  0  0  0  0  0  0
   -3.1150   32.4052   13.5779 N   0  0  0  0  0  0  0  0  0  0  0  0
   -3.5279   33.3411   14.5624 C   0  0  0  0  0  0  0  0  0  0  0  0
   -4.7542   33.4740   14.7998 O   0  0  0  0  0  0  0  0  0  0  0  0
   -2.5399   34.1436   15.3384 C   0  0  0  0  0  0  0  0  0  0  0  0
   -1.1363   34.0197   14.8518 C   0  0  0  0  0  0  0  0  0  0  0  0
    1.4389   31.2767    6.1549 H   0  0  0  0  0  0  0  0  0  0  0  0
   -0.4326   30.4528    8.8283 H   0  0  0  0  0  0  0  0  0  0  0  0
    0.6217   32.6253    9.6734 H   0  0  0  0  0  0  0  0  0  0  0  0
    0.3516   31.1309   10.6827 H   0  0  0  0  0  0  0  0  0  0  0  0
    2.5625   33.2321   11.1343 H   0  0  0  0  0  0  0  0  0  0  0  0
    2.5489   30.5667   12.1228 H   0  0  0  0  0  0  0  0  0  0  0  0
    3.4019   33.0759   13.2235 H   0  0  0  0  0  0  0  0  0  0  0  0
    0.5561   30.7378   13.3061 H   0  0  0  0  0  0  0  0  0  0  0  0
    1.4426   30.2699   15.1196 H   0  0  0  0  0  0  0  0  0  0  0  0
    1.3118   33.5978   14.1308 H   0  0  0  0  0  0  0  0  0  0  0  0
   -3.8385   31.8421   13.0758 H   0  0  0  0  0  0  0  0  0  0  0  0
   -2.5751   33.8160   16.3991 H   0  0  0  0  0  0  0  0  0  0  0  0
   -2.8411   35.2126   15.2975 H   0  0  0  0  0  0  0  0  0  0  0  0
  2  1  2  0
  3  1  1  0
  4  1  1  0
  6  5  1  0
  6  1  1  0
  7  5  1  0
  8  7  1  0
  9  7  1  0
  9 10  1  0
 11  9  1  0
 11 12  1  0
 13 11  1  0
 13  8  1  0
 13 14  1  0
 16 14  1  0
 17 16  2  0
 18 16  1  0
 19 18  1  0
 20 19  2  0
 21 19  1  0
 22 21  1  0
 22 15  2  0
 22 14  1  0
  3 23  1  0
  4 24  1  0
  5 25  1  0
  5 26  1  0
  7 27  1  6
  9 28  1  6
 10 29  1  0
 11 30  1  6
 12 31  1  0
 13 32  1  1
 18 33  1  0
 21 34  1  0
 21 35  1  0
M  END
