
     RDKit          3D

 12 12  0  0  0  0  0  0  0  0999 V2000
   62.2648   34.6770   25.1714 C   0  0  0  0  0  0  0  0  0  0  0  0
   63.5441   34.5425   25.6084 N   0  0  0  0  0  0  0  0  0  0  0  0
   61.1959   34.2233   25.9805 N   0  0  0  0  0  0  0  0  0  0  0  0
   63.0133   35.6948   23.1830 C   0  0  0  0  0  0  0  0  0  0  0  0
   64.5788   34.9768   24.8494 C   0  0  0  0  0  0  0  0  0  0  0  0
   64.3325   35.5688   23.6126 C   0  0  0  0  0  0  0  0  0  0  0  0
   62.0027   35.2465   23.9659 N   0  0  0  0  0  0  0  0  0  0  0  0
   60.4229   33.6558   25.5671 H   0  0  0  0  0  0  0  0  0  0  0  0
   61.1692   34.4514   26.9991 H   0  0  0  0  0  0  0  0  0  0  0  0
   62.7935   36.1482   22.2257 H   0  0  0  0  0  0  0  0  0  0  0  0
   65.5937   34.8650   25.2068 H   0  0  0  0  0  0  0  0  0  0  0  0
   65.1497   35.9218   22.9970 H   0  0  0  0  0  0  0  0  0  0  0  0
  2  1  2  0
  3  1  1  0
  5  2  1  0
  6  5  2  0
  6  4  1  0
  7  4  2  0
  7  1  1  0
  3  8  1  0
  3  9  1  0
  4 10  1  0
  5 11  1  0
  6 12  1  0
M  END
