
     RDKit          3D

 22 22  0  0  0  0  0  0  0  0999 V2000
   57.0568   13.3732   27.0493 C   0  0  0  0  0  0  0  0  0  0  0  0
   56.1588   13.4826   26.1695 O   0  0  0  0  0  0  0  0  0  0  0  0
   57.8831   14.4482   27.3133 O   0  0  0  0  0  0  0  0  0  0  0  0
   57.1912   12.1191   27.8207 C   0  0  0  0  0  0  0  0  0  0  0  0
   58.3893   11.5129   27.9942 C   0  0  0  0  0  0  0  0  0  0  0  0
   58.4814   10.1342   28.6172 C   0  0  1  0  0  0  0  0  0  0  0  0
   59.7833    9.8493   29.0717 O   0  0  0  0  0  0  0  0  0  0  0  0
   57.4571   10.0114   29.7615 C   0  0  1  0  0  0  0  0  0  0  0  0
   56.0344   10.2776   29.2389 C   0  0  1  0  0  0  0  0  0  0  0  0
   55.9302   11.6096   28.4730 C   0  0  0  0  0  0  0  0  0  0  0  0
   55.6096    9.2209   28.4162 O   0  0  0  0  0  0  0  0  0  0  0  0
   57.5184    8.7534   30.3881 O   0  0  0  0  0  0  0  0  0  0  0  0
   58.3260   14.5549   28.2182 H   0  0  0  0  0  0  0  0  0  0  0  0
   59.2811   11.9404   27.5515 H   0  0  0  0  0  0  0  0  0  0  0  0
   58.2322    9.3936   27.8263 H   0  0  0  0  0  0  0  0  0  0  0  0
   59.7568    9.8510   30.0646 H   0  0  0  0  0  0  0  0  0  0  0  0
   57.6919   10.7812   30.5307 H   0  0  0  0  0  0  0  0  0  0  0  0
   55.3624   10.3303   30.1289 H   0  0  0  0  0  0  0  0  0  0  0  0
   55.1249   11.5323   27.7098 H   0  0  0  0  0  0  0  0  0  0  0  0
   55.6030   12.3894   29.1955 H   0  0  0  0  0  0  0  0  0  0  0  0
   54.6195    9.2746   28.3609 H   0  0  0  0  0  0  0  0  0  0  0  0
   57.7135    8.8974   31.3508 H   0  0  0  0  0  0  0  0  0  0  0  0
  2  1  2  0
  3  1  1  0
  4  1  1  0
  5  4  2  0
  6  5  1  0
  6  7  1  0
  8  6  1  0
  9  8  1  0
 10  9  1  0
 10  4  1  0
  9 11  1  0
  8 12  1  0
  3 13  1  0
  5 14  1  0
  6 15  1  6
  7 16  1  0
  8 17  1  1
  9 18  1  1
 10 19  1  0
 10 20  1  0
 11 21  1  0
 12 22  1  0
M  END
