
     RDKit          3D

 22 22  0  0  0  0  0  0  0  0999 V2000
   57.1618   12.5771   27.7139 C   0  0  0  0  0  0  0  0  0  0  0  0
   56.2638   12.6864   26.8342 O   0  0  0  0  0  0  0  0  0  0  0  0
   57.9881   13.6521   27.9779 O   0  0  0  0  0  0  0  0  0  0  0  0
   57.2962   11.3229   28.4853 C   0  0  0  0  0  0  0  0  0  0  0  0
   58.0441   10.2867   28.0381 C   0  0  0  0  0  0  0  0  0  0  0  0
   58.0144    8.9444   28.7415 C   0  0  1  0  0  0  0  0  0  0  0  0
   59.1193    8.1443   28.3927 O   0  0  0  0  0  0  0  0  0  0  0  0
   57.9455    9.1578   30.2658 C   0  0  1  0  0  0  0  0  0  0  0  0
   56.7066    9.9923   30.6352 C   0  0  1  0  0  0  0  0  0  0  0  0
   56.6238   11.3057   29.8355 C   0  0  0  0  0  0  0  0  0  0  0  0
   55.5350    9.2417   30.4403 O   0  0  0  0  0  0  0  0  0  0  0  0
   57.9379    7.9380   30.9667 O   0  0  0  0  0  0  0  0  0  0  0  0
   58.7902   13.5548   28.5891 H   0  0  0  0  0  0  0  0  0  0  0  0
   58.5542   10.3594   27.0850 H   0  0  0  0  0  0  0  0  0  0  0  0
   57.0964    8.4133   28.4078 H   0  0  0  0  0  0  0  0  0  0  0  0
   58.7651    7.3238   27.9593 H   0  0  0  0  0  0  0  0  0  0  0  0
   58.8500    9.7227   30.5852 H   0  0  0  0  0  0  0  0  0  0  0  0
   56.7928   10.2456   31.7192 H   0  0  0  0  0  0  0  0  0  0  0  0
   55.5573   11.5992   29.7207 H   0  0  0  0  0  0  0  0  0  0  0  0
   57.1039   12.1026   30.4451 H   0  0  0  0  0  0  0  0  0  0  0  0
   55.5475    8.9209   29.5005 H   0  0  0  0  0  0  0  0  0  0  0  0
   57.2583    7.3467   30.5495 H   0  0  0  0  0  0  0  0  0  0  0  0
  2  1  2  0
  3  1  1  0
  4  1  1  0
  5  4  2  0
  6  5  1  0
  6  7  1  0
  8  6  1  0
  9  8  1  0
 10  9  1  0
 10  4  1  0
  9 11  1  0
  8 12  1  0
  3 13  1  0
  5 14  1  0
  6 15  1  6
  7 16  1  0
  8 17  1  1
  9 18  1  1
 10 19  1  0
 10 20  1  0
 11 21  1  0
 12 22  1  0
M  END
