
     RDKit          3D

 55 57  0  0  0  0  0  0  0  0999 V2000
   -9.1838   29.5557   52.1094 N   0  0  0  0  0  0  0  0  0  0  0  0
   -8.0305   28.6943   52.3278 C   0  0  1  0  0  0  0  0  0  0  0  0
  -14.3165   34.6069   52.0473 C   0  0  0  0  0  0  0  0  0  0  0  0
  -15.7054   34.5295   51.9426 C   0  0  0  0  0  0  0  0  0  0  0  0
  -13.7314   34.8090   53.3028 C   0  0  0  0  0  0  0  0  0  0  0  0
  -14.5320   34.9112   54.4407 C   0  0  0  0  0  0  0  0  0  0  0  0
  -15.9345   34.8265   54.3484 C   0  0  0  0  0  0  0  0  0  0  0  0
  -16.5032   34.6150   53.0768 C   0  0  0  0  0  0  0  0  0  0  0  0
  -16.7080   34.9427   55.6159 C   0  0  0  0  0  0  0  0  0  0  0  0
  -18.0297   34.7794   55.8220 C   0  0  0  0  0  0  0  0  0  0  0  0
  -18.6392   35.0178   57.1315 C   0  0  0  0  0  0  0  0  0  0  0  0
  -20.5159   34.4659   55.8841 C   0  0  0  0  0  0  0  0  0  0  0  0
  -13.4689   34.4740   50.8146 C   0  0  0  0  0  0  0  0  0  0  0  0
  -13.9631   30.1486   51.6212 C   0  0  0  0  0  0  0  0  0  0  0  0
  -13.8268   31.4921   51.2641 C   0  0  0  0  0  0  0  0  0  0  0  0
  -12.8734   29.4498   52.1488 C   0  0  0  0  0  0  0  0  0  0  0  0
  -12.5900   32.1428   51.4194 C   0  0  0  0  0  0  0  0  0  0  0  0
  -11.5131   31.4437   51.9648 C   0  0  0  0  0  0  0  0  0  0  0  0
  -11.6294   30.0899   52.3010 C   0  0  0  0  0  0  0  0  0  0  0  0
  -10.4435   29.3384   52.7453 C   0  0  0  0  0  0  0  0  0  0  0  0
   -7.0151   28.9812   51.2661 C   0  0  0  0  0  0  0  0  0  0  0  0
   -5.7897   29.5056   51.6298 O   0  0  0  0  0  0  0  0  0  0  0  0
  -20.0392   34.8347   57.1661 N   0  0  0  0  0  0  0  0  0  0  0  0
  -12.3889   33.5095   51.0161 N   0  0  0  0  0  0  0  0  0  0  0  0
   -7.4483   28.9750   53.7202 C   0  0  0  0  0  0  0  0  0  0  0  0
  -10.5514   28.4689   53.6481 O   0  0  0  0  0  0  0  0  0  0  0  0
  -17.9889   35.3672   58.1521 O   0  0  0  0  0  0  0  0  0  0  0  0
  -19.2792   34.3128   54.6136 S   0  0  0  0  0  0  0  0  0  0  0  0
  -22.0945   34.1493   55.5810 S   0  0  0  0  0  0  0  0  0  0  0  0
   -8.4719   28.6507   54.8206 C   0  0  0  0  0  0  0  0  0  0  0  0
   -8.0734   29.2362   56.1365 C   0  0  0  0  0  0  0  0  0  0  0  0
   -7.4011   30.4438   56.1680 O   0  0  0  0  0  0  0  0  0  0  0  0
   -8.3072   28.6195   57.2101 O   0  0  0  0  0  0  0  0  0  0  0  0
   -7.2710   28.7562   50.0506 O   0  0  0  0  0  0  0  0  0  0  0  0
   -9.1435   30.1616   51.2596 H   0  0  0  0  0  0  0  0  0  0  0  0
   -8.3266   27.6229   52.2765 H   0  0  0  0  0  0  0  0  0  0  0  0
  -16.1746   34.3624   50.9803 H   0  0  0  0  0  0  0  0  0  0  0  0
  -12.6552   34.8815   53.4015 H   0  0  0  0  0  0  0  0  0  0  0  0
  -14.0498   35.0648   55.3987 H   0  0  0  0  0  0  0  0  0  0  0  0
  -17.5419   34.4494   52.9063 H   0  0  0  0  0  0  0  0  0  0  0  0
  -16.1227   35.2385   56.4797 H   0  0  0  0  0  0  0  0  0  0  0  0
  -14.0715   34.1636   49.9337 H   0  0  0  0  0  0  0  0  0  0  0  0
  -13.0347   35.4695   50.5788 H   0  0  0  0  0  0  0  0  0  0  0  0
  -14.9129   29.6471   51.4866 H   0  0  0  0  0  0  0  0  0  0  0  0
  -14.6769   32.0048   50.8364 H   0  0  0  0  0  0  0  0  0  0  0  0
  -12.9899   28.4030   52.4008 H   0  0  0  0  0  0  0  0  0  0  0  0
  -10.5879   31.9788   52.1312 H   0  0  0  0  0  0  0  0  0  0  0  0
   -5.0848   29.7118   50.9321 H   0  0  0  0  0  0  0  0  0  0  0  0
  -20.6359   34.9592   58.0142 H   0  0  0  0  0  0  0  0  0  0  0  0
  -11.4113   33.8776   50.9676 H   0  0  0  0  0  0  0  0  0  0  0  0
   -6.5384   28.3547   53.8787 H   0  0  0  0  0  0  0  0  0  0  0  0
   -7.1479   30.0453   53.7841 H   0  0  0  0  0  0  0  0  0  0  0  0
   -9.4737   29.0587   54.5680 H   0  0  0  0  0  0  0  0  0  0  0  0
   -8.5729   27.5476   54.9150 H   0  0  0  0  0  0  0  0  0  0  0  0
   -7.1071   30.8528   57.0470 H   0  0  0  0  0  0  0  0  0  0  0  0
  2  1  1  0
  4  3  2  0
  5  3  1  0
  6  5  2  0
  7  6  1  0
  8  4  1  0
  8  7  2  0
  9  7  1  0
 10  9  2  3
 11 10  1  0
 13  3  1  0
 15 14  2  0
 16 14  1  0
 17 15  1  0
 18 17  2  0
 19 16  2  0
 19 18  1  0
 20 19  1  0
 20  1  1  0
 21  2  1  0
 22 21  1  0
 23 12  1  0
 23 11  1  0
 24 17  1  0
 24 13  1  0
  2 25  1  0
 26 20  2  0
 27 11  2  0
 28 12  1  0
 28 10  1  0
 29 12  2  0
 30 25  1  0
 31 30  1  0
 32 31  1  0
 33 31  2  0
 34 21  2  0
  1 35  1  0
  2 36  1  1
  4 37  1  0
  5 38  1  0
  6 39  1  0
  8 40  1  0
  9 41  1  0
 13 42  1  0
 13 43  1  0
 14 44  1  0
 15 45  1  0
 16 46  1  0
 18 47  1  0
 22 48  1  0
 23 49  1  0
 24 50  1  0
 25 51  1  0
 25 52  1  0
 30 53  1  0
 30 54  1  0
 32 55  1  0
M  END
