
     RDKit          3D

 38 38  0  0  0  0  0  0  0  0999 V2000
   29.9547   66.2406    6.5583 C   0  0  1  0  0  0  0  0  0  0  0  0
   30.1079   67.2229    5.5691 O   0  0  0  0  0  0  0  0  0  0  0  0
   31.0326   66.3347    7.6545 C   0  0  2  0  0  0  0  0  0  0  0  0
   32.2525   65.8625    7.1527 O   0  0  0  0  0  0  0  0  0  0  0  0
   30.5567   65.5391    8.8896 C   0  0  0  0  0  0  0  0  0  0  0  0
   28.8253   65.2264    8.6218 S   0  0  0  0  0  0  0  0  0  0  0  0
   28.6204   66.3579    7.2659 C   0  0  2  0  0  0  0  0  0  0  0  0
   27.4265   66.0571    6.3536 C   0  0  0  0  0  0  0  0  0  0  0  0
   26.3461   65.5985    7.1182 O   0  0  0  0  0  0  0  0  0  0  0  0
   27.8752   65.8608    9.9784 C   0  0  0  0  0  0  0  0  0  0  0  0
   27.6378   64.8640   11.1262 C   0  0  2  0  0  0  0  0  0  0  0  0
   27.1950   63.6221   10.6398 O   0  0  0  0  0  0  0  0  0  0  0  0
   26.5853   65.4342   12.1089 C   0  0  2  0  0  0  0  0  0  0  0  0
   25.7870   66.3633   11.4222 O   0  0  0  0  0  0  0  0  0  0  0  0
   26.3712   67.9351   11.5984 S   0  0  0  0  0  0  0  0  0  0  0  0
   27.2429   66.1755   13.2740 C   0  0  0  0  0  0  0  0  0  0  0  0
   28.3970   65.4946   13.6875 O   0  0  0  0  0  0  0  0  0  0  0  0
   25.1636   69.0795   11.4014 O   0  0  0  0  0  0  0  0  0  0  0  0
   27.5428   68.1367   10.4175 O   0  0  0  0  0  0  0  0  0  0  0  0
   27.0506   68.1113   13.1145 O   0  0  0  0  0  0  0  0  0  0  0  0
   30.0126   65.2439    6.0634 H   0  0  0  0  0  0  0  0  0  0  0  0
   30.0503   68.1115    6.0085 H   0  0  0  0  0  0  0  0  0  0  0  0
   31.1635   67.3985    7.9532 H   0  0  0  0  0  0  0  0  0  0  0  0
   32.1448   64.8993    6.9354 H   0  0  0  0  0  0  0  0  0  0  0  0
   30.7108   66.1265    9.8196 H   0  0  0  0  0  0  0  0  0  0  0  0
   31.0837   64.5662    8.9823 H   0  0  0  0  0  0  0  0  0  0  0  0
   28.5095   67.3876    7.6758 H   0  0  0  0  0  0  0  0  0  0  0  0
   27.7036   65.2716    5.6185 H   0  0  0  0  0  0  0  0  0  0  0  0
   27.1324   66.9693    5.7861 H   0  0  0  0  0  0  0  0  0  0  0  0
   25.9517   66.3944    7.5620 H   0  0  0  0  0  0  0  0  0  0  0  0
   28.3683   66.7795   10.3615 H   0  0  0  0  0  0  0  0  0  0  0  0
   26.8940   66.1484    9.5556 H   0  0  0  0  0  0  0  0  0  0  0  0
   28.6028   64.7092   11.6565 H   0  0  0  0  0  0  0  0  0  0  0  0
   26.3158   63.7634   10.1993 H   0  0  0  0  0  0  0  0  0  0  0  0
   26.0097   64.5829   12.5456 H   0  0  0  0  0  0  0  0  0  0  0  0
   27.5208   67.1990   12.9355 H   0  0  0  0  0  0  0  0  0  0  0  0
   26.5309   66.2753   14.1234 H   0  0  0  0  0  0  0  0  0  0  0  0
   28.7725   66.0217   14.4398 H   0  0  0  0  0  0  0  0  0  0  0  0
  1  2  1  0
  3  1  1  0
  3  4  1  0
  5  3  1  0
  6  5  1  0
  7  6  1  0
  7  1  1  0
  7  8  1  0
  9  8  1  0
  6 10  1  1
 11 10  1  0
 11 12  1  0
 13 11  1  0
 14 13  1  0
 15 14  1  0
 13 16  1  0
 17 16  1  0
 15 18  1  0
 19 15  1  0
 20 15  1  0
  1 21  1  6
  2 22  1  0
  3 23  1  1
  4 24  1  0
  5 25  1  0
  5 26  1  0
  7 27  1  1
  8 28  1  0
  8 29  1  0
  9 30  1  0
 10 31  1  0
 10 32  1  0
 11 33  1  1
 12 34  1  0
 13 35  1  1
 16 36  1  0
 16 37  1  0
 17 38  1  0
M  CHG  4   6   1  18  -1  19  -1  20  -1
M  END
