
     RDKit          3D

 17 18  0  0  0  0  0  0  0  0999 V2000
   27.7423    9.5572    4.3739 C   0  0  0  0  0  0  0  0  0  0  0  0
   28.1455    9.3270    2.9435 C   0  0  0  0  0  0  0  0  0  0  0  0
   27.6522    8.1782    2.4682 C   0  0  0  0  0  0  0  0  0  0  0  0
   26.1824    6.3432    3.5252 C   0  0  0  0  0  0  0  0  0  0  0  0
   25.5270    5.9558    4.7058 C   0  0  0  0  0  0  0  0  0  0  0  0
   25.5894    6.7641    5.8560 C   0  0  0  0  0  0  0  0  0  0  0  0
   26.2999    7.9716    5.8303 C   0  0  0  0  0  0  0  0  0  0  0  0
   26.9415    8.3370    4.6474 C   0  0  0  0  0  0  0  0  0  0  0  0
   26.8834    7.5466    3.5267 C   0  0  0  0  0  0  0  0  0  0  0  0
   28.6353    9.6028    5.0322 H   0  0  0  0  0  0  0  0  0  0  0  0
   27.1184   10.4713    4.4649 H   0  0  0  0  0  0  0  0  0  0  0  0
   28.7578   10.0038    2.3625 H   0  0  0  0  0  0  0  0  0  0  0  0
   27.8038    7.7972    1.4670 H   0  0  0  0  0  0  0  0  0  0  0  0
   26.1431    5.7230    2.6391 H   0  0  0  0  0  0  0  0  0  0  0  0
   24.9742    5.0258    4.7322 H   0  0  0  0  0  0  0  0  0  0  0  0
   25.0833    6.4551    6.7613 H   0  0  0  0  0  0  0  0  0  0  0  0
   26.3506    8.6034    6.7076 H   0  0  0  0  0  0  0  0  0  0  0  0
  2  1  1  0
  3  2  2  0
  5  4  1  0
  6  5  2  0
  7  6  1  0
  8  7  2  0
  8  1  1  0
  9  4  2  0
  9  8  1  0
  9  3  1  0
  1 10  1  0
  1 11  1  0
  2 12  1  0
  3 13  1  0
  4 14  1  0
  5 15  1  0
  6 16  1  0
  7 17  1  0
M  END
