
     RDKit          3D

 19 19  0  0  0  0  0  0  0  0999 V2000
   25.7004    5.1499    7.0870 C   0  0  0  0  0  0  0  0  0  0  0  0
   26.2769    6.4182    7.0573 C   0  0  0  0  0  0  0  0  0  0  0  0
   25.5601    4.4159    5.9046 C   0  0  0  0  0  0  0  0  0  0  0  0
   26.7098    6.9539    5.8487 C   0  0  0  0  0  0  0  0  0  0  0  0
   25.9858    4.9540    4.6846 C   0  0  0  0  0  0  0  0  0  0  0  0
   28.3943    7.2215    1.5284 C   0  0  0  0  0  0  0  0  0  0  0  0
   28.1844    6.4433    2.8104 C   0  0  0  0  0  0  0  0  0  0  0  0
   26.5549    6.2327    4.6464 C   0  0  0  0  0  0  0  0  0  0  0  0
   26.9362    6.7843    3.4187 O   0  0  0  0  0  0  0  0  0  0  0  0
   28.6792    8.9423    1.8883 Cl  0  0  0  0  0  0  0  0  0  0  0  0
   25.3660    4.7300    8.0269 H   0  0  0  0  0  0  0  0  0  0  0  0
   26.3940    6.9814    7.9743 H   0  0  0  0  0  0  0  0  0  0  0  0
   25.1149    3.4297    5.9323 H   0  0  0  0  0  0  0  0  0  0  0  0
   27.1678    7.9323    5.8743 H   0  0  0  0  0  0  0  0  0  0  0  0
   25.8623    4.3859    3.7714 H   0  0  0  0  0  0  0  0  0  0  0  0
   29.2754    6.8181    0.9861 H   0  0  0  0  0  0  0  0  0  0  0  0
   27.4992    7.1267    0.8779 H   0  0  0  0  0  0  0  0  0  0  0  0
   29.0279    6.6871    3.4941 H   0  0  0  0  0  0  0  0  0  0  0  0
   28.2004    5.3557    2.5804 H   0  0  0  0  0  0  0  0  0  0  0  0
  2  1  2  0
  3  1  1  0
  4  2  1  0
  5  3  2  0
  7  6  1  0
  8  5  1  0
  8  4  2  0
  9  8  1  0
  9  7  1  0
 10  6  1  0
  1 11  1  0
  2 12  1  0
  3 13  1  0
  4 14  1  0
  5 15  1  0
  6 16  1  0
  6 17  1  0
  7 18  1  0
  7 19  1  0
M  END
