
     RDKit          3D

 14 14  0  0  0  0  0  0  0  0999 V2000
   55.2586   39.5537    8.7386 N   0  0  0  0  0  0  0  0  0  0  0  0
   53.9951   39.1785    8.4021 C   0  0  0  0  0  0  0  0  0  0  0  0
   51.1256   39.3138    7.5687 O   0  0  0  0  0  0  0  0  0  0  0  0
   53.4643   39.5208    7.1462 C   0  0  0  0  0  0  0  0  0  0  0  0
   51.8496   38.5159    5.5547 O   0  0  0  0  0  0  0  0  0  0  0  0
   54.2696   40.2477    6.2533 C   0  0  0  0  0  0  0  0  0  0  0  0
   55.5634   40.6171    6.6304 C   0  0  0  0  0  0  0  0  0  0  0  0
   56.0484   40.2614    7.8887 C   0  0  0  0  0  0  0  0  0  0  0  0
   52.0894   39.1171    6.7802 C   0  0  0  0  0  0  0  0  0  0  0  0
   53.4093   38.6168    9.1178 H   0  0  0  0  0  0  0  0  0  0  0  0
   50.9388   38.1325    5.3318 H   0  0  0  0  0  0  0  0  0  0  0  0
   53.9025   40.5300    5.2744 H   0  0  0  0  0  0  0  0  0  0  0  0
   56.1878   41.1788    5.9477 H   0  0  0  0  0  0  0  0  0  0  0  0
   57.0487   40.5438    8.1888 H   0  0  0  0  0  0  0  0  0  0  0  0
  2  1  2  0
  4  2  1  0
  6  4  2  0
  7  6  1  0
  8  7  2  0
  8  1  1  0
  9  5  1  0
  9  4  1  0
  9  3  2  0
  2 10  1  0
  5 11  1  0
  6 12  1  0
  7 13  1  0
  8 14  1  0
M  END
