
     RDKit          3D

 41 43  0  0  0  0  0  0  0  0999 V2000
   33.8758   -7.6356    2.1755 C   0  0  0  0  0  0  0  0  0  0  0  0
   35.3584   -7.4350    2.5116 C   0  0  0  0  0  0  0  0  0  0  0  0
   33.2129   -8.7839    2.9634 C   0  0  0  0  0  0  0  0  0  0  0  0
   35.8613   -6.5029    1.5813 O   0  0  0  0  0  0  0  0  0  0  0  0
   33.8554   -8.9693    4.2129 O   0  0  0  0  0  0  0  0  0  0  0  0
   36.8993   -5.7347    2.1326 C   0  0  0  0  0  0  0  0  0  0  0  0
   35.2488   -9.0822    4.0289 C   0  0  0  0  0  0  0  0  0  0  0  0
   30.3774   -2.8137   -0.6770 N   0  0  0  0  0  0  0  0  0  0  0  0
   29.5443   -1.7694    1.2484 N   0  0  0  0  0  0  0  0  0  0  0  0
   33.1639   -6.3806    2.4242 N   0  0  0  0  0  0  0  0  0  0  0  0
   28.9559   -0.8903   -0.9043 N   0  0  0  0  0  0  0  0  0  0  0  0
   30.0529   -2.4719    3.4559 N   0  0  0  0  0  0  0  0  0  0  0  0
   31.0661   -3.7179    0.0681 C   0  0  0  0  0  0  0  0  0  0  0  0
   29.6380   -1.8388   -0.0975 C   0  0  0  0  0  0  0  0  0  0  0  0
   30.2042   -2.6381    2.0548 C   0  0  0  0  0  0  0  0  0  0  0  0
   31.0258   -3.6489    1.4889 C   0  0  0  0  0  0  0  0  0  0  0  0
   31.7999   -4.6032    2.2050 C   0  0  0  0  0  0  0  0  0  0  0  0
   31.9690   -4.8560    3.5690 C   0  0  0  0  0  0  0  0  0  0  0  0
   32.8239   -5.9384    3.6551 C   0  0  0  0  0  0  0  0  0  0  0  0
   32.5510   -5.5599    1.5384 C   0  0  0  0  0  0  0  0  0  0  0  0
   32.5775   -5.6301    0.1396 C   0  0  0  0  0  0  0  0  0  0  0  0
   31.7949   -4.7283   -0.5869 C   0  0  0  0  0  0  0  0  0  0  0  0
   33.8106   -7.9006    1.0994 H   0  0  0  0  0  0  0  0  0  0  0  0
   35.9043   -8.3945    2.3831 H   0  0  0  0  0  0  0  0  0  0  0  0
   35.4661   -7.0999    3.5710 H   0  0  0  0  0  0  0  0  0  0  0  0
   33.2079   -9.6925    2.3107 H   0  0  0  0  0  0  0  0  0  0  0  0
   32.1408   -8.5545    3.1471 H   0  0  0  0  0  0  0  0  0  0  0  0
   37.8535   -6.0251    1.6472 H   0  0  0  0  0  0  0  0  0  0  0  0
   36.7322   -4.6526    1.9371 H   0  0  0  0  0  0  0  0  0  0  0  0
   37.0000   -5.9212    3.2253 H   0  0  0  0  0  0  0  0  0  0  0  0
   35.4981   -9.9090    3.3272 H   0  0  0  0  0  0  0  0  0  0  0  0
   35.7676   -9.2256    5.0029 H   0  0  0  0  0  0  0  0  0  0  0  0
   35.6242   -8.1387    3.5827 H   0  0  0  0  0  0  0  0  0  0  0  0
   28.3824   -0.1365   -0.4646 H   0  0  0  0  0  0  0  0  0  0  0  0
   29.0213   -0.9372   -1.9454 H   0  0  0  0  0  0  0  0  0  0  0  0
   30.8730   -2.1769    4.0275 H   0  0  0  0  0  0  0  0  0  0  0  0
   29.1123   -2.2338    3.8418 H   0  0  0  0  0  0  0  0  0  0  0  0
   31.5008   -4.3834    4.4155 H   0  0  0  0  0  0  0  0  0  0  0  0
   33.1167   -6.4180    4.5802 H   0  0  0  0  0  0  0  0  0  0  0  0
   33.1596   -6.3729   -0.3860 H   0  0  0  0  0  0  0  0  0  0  0  0
   31.7961   -4.7796   -1.6688 H   0  0  0  0  0  0  0  0  0  0  0  0
  1  2  1  0
  3  1  1  0
  4  2  1  0
  5  3  1  0
  6  4  1  0
  7  5  1  0
 10  1  1  0
 13  8  2  0
 14 11  1  0
 14  9  2  0
 14  8  1  0
 15 12  1  0
 15  9  1  0
 16 15  2  0
 16 13  1  0
 17 16  1  0
 18 17  1  0
 19 18  2  0
 19 10  1  0
 20 17  2  0
 20 10  1  0
 21 20  1  0
 22 21  2  0
 22 13  1  0
  1 23  1  0
  2 24  1  0
  2 25  1  0
  3 26  1  0
  3 27  1  0
  6 28  1  0
  6 29  1  0
  6 30  1  0
  7 31  1  0
  7 32  1  0
  7 33  1  0
 11 34  1  0
 11 35  1  0
 12 36  1  0
 12 37  1  0
 18 38  1  0
 19 39  1  0
 21 40  1  0
 22 41  1  0
M  END
