
     RDKit          3D

 29 28  0  0  0  0  0  0  0  0999 V2000
   15.0851   21.7473   31.9192 P   0  0  0  0  0  0  0  0  0  0  0  0
   14.8574   23.1686   32.3719 O   0  0  0  0  0  0  0  0  0  0  0  0
   14.4046   20.6784   33.0194 O   0  0  0  0  0  0  0  0  0  0  0  0
   16.7307   21.4426   31.7710 O   0  0  0  0  0  0  0  0  0  0  0  0
   16.3431   24.1206   26.7178 C   0  0  0  0  0  0  0  0  0  0  0  0
   15.9340   25.1843   26.2797 O   0  0  0  0  0  0  0  0  0  0  0  0
   15.7117   22.8345   26.2535 C   0  0  2  0  0  0  0  0  0  0  0  0
   14.3403   22.7920   26.5706 O   0  0  0  0  0  0  0  0  0  0  0  0
   16.4352   21.5590   26.7495 C   0  0  1  0  0  0  0  0  0  0  0  0
   17.8105   21.6205   26.4613 O   0  0  0  0  0  0  0  0  0  0  0  0
   16.2514   21.2515   28.2531 C   0  0  2  0  0  0  0  0  0  0  0  0
   17.4063   20.6386   28.7748 O   0  0  0  0  0  0  0  0  0  0  0  0
   14.9889   20.3684   28.4497 C   0  0  2  0  0  0  0  0  0  0  0  0
   13.9213   20.8649   27.6772 O   0  0  0  0  0  0  0  0  0  0  0  0
   14.5684   20.2540   29.9164 C   0  0  0  0  0  0  0  0  0  0  0  0
   14.3297   21.5480   30.4219 O   0  0  0  0  0  0  0  0  0  0  0  0
   13.8975   21.2469   33.6520 H   0  0  0  0  0  0  0  0  0  0  0  0
   17.1619   22.3321   31.8343 H   0  0  0  0  0  0  0  0  0  0  0  0
   17.1405   24.1200   27.4537 H   0  0  0  0  0  0  0  0  0  0  0  0
   15.7842   22.8409   25.1442 H   0  0  0  0  0  0  0  0  0  0  0  0
   14.2199   23.1194   27.5003 H   0  0  0  0  0  0  0  0  0  0  0  0
   15.9857   20.7186   26.1699 H   0  0  0  0  0  0  0  0  0  0  0  0
   17.9120   21.4347   25.4912 H   0  0  0  0  0  0  0  0  0  0  0  0
   16.0879   22.1948   28.8132 H   0  0  0  0  0  0  0  0  0  0  0  0
   17.8538   21.2846   29.3813 H   0  0  0  0  0  0  0  0  0  0  0  0
   15.2104   19.3380   28.0935 H   0  0  0  0  0  0  0  0  0  0  0  0
   13.0720   20.6312   28.1353 H   0  0  0  0  0  0  0  0  0  0  0  0
   13.6245   19.6709   29.9781 H   0  0  0  0  0  0  0  0  0  0  0  0
   15.3457   19.6648   30.4574 H   0  0  0  0  0  0  0  0  0  0  0  0
  2  1  2  0
  3  1  1  0
  4  1  1  0
  6  5  2  0
  7  5  1  0
  7  8  1  0
  9  7  1  0
  9 10  1  0
 11  9  1  0
 11 12  1  0
 13 11  1  0
 13 14  1  0
 15 13  1  0
 16 15  1  0
 16  1  1  0
  3 17  1  0
  4 18  1  0
  5 19  1  0
  7 20  1  6
  8 21  1  0
  9 22  1  6
 10 23  1  0
 11 24  1  1
 12 25  1  0
 13 26  1  6
 14 27  1  0
 15 28  1  0
 15 29  1  0
M  END
