
     RDKit          3D

 36 36  0  0  0  0  0  0  0  0999 V2000
   31.5482   10.0540   12.1125 N   0  0  0  0  0  0  0  0  0  0  0  0
   31.3117   10.1341   13.5186 C   0  0  0  0  0  0  0  0  0  0  0  0
   30.4604    9.1222   14.1257 C   0  0  0  0  0  0  0  0  0  0  0  0
   30.1266    8.1116   13.4518 O   0  0  0  0  0  0  0  0  0  0  0  0
   31.7831   11.1405   14.2634 C   0  0  0  0  0  0  0  0  0  0  0  0
   26.7843    8.1180    8.8517 P   0  0  0  0  0  0  0  0  0  0  0  0
   29.9961    9.2924   15.4221 O   0  0  0  0  0  0  0  0  0  0  0  0
   32.0004   10.0819    7.1195 N   0  0  0  0  0  0  0  0  0  0  0  0
   32.6702   10.9071    7.9609 C   0  0  0  0  0  0  0  0  0  0  0  0
   33.8805   11.6280    7.4596 C   0  0  0  0  0  0  0  0  0  0  0  0
   32.2219   11.0738    9.2807 C   0  0  0  0  0  0  0  0  0  0  0  0
   32.8807   11.9388   10.1578 O   0  0  0  0  0  0  0  0  0  0  0  0
   31.1022   10.3515    9.7311 C   0  0  0  0  0  0  0  0  0  0  0  0
   30.6264   10.6033   11.1356 C   0  0  0  0  0  0  0  0  0  0  0  0
   30.4562    9.4514    8.8430 C   0  0  0  0  0  0  0  0  0  0  0  0
   29.2813    8.5625    9.2092 C   0  0  0  0  0  0  0  0  0  0  0  0
   30.9181    9.3743    7.5202 C   0  0  0  0  0  0  0  0  0  0  0  0
   26.1641    8.3719   10.2011 O   0  0  0  0  0  0  0  0  0  0  0  0
   27.1565    6.4867    8.6767 O   0  0  0  0  0  0  0  0  0  0  0  0
   25.7201    8.5624    7.6354 O   0  0  0  0  0  0  0  0  0  0  0  0
   28.1259    9.1304    8.6579 O   0  0  0  0  0  0  0  0  0  0  0  0
   32.3804    9.5123   11.7834 H   0  0  0  0  0  0  0  0  0  0  0  0
   31.5767   11.1999   15.3245 H   0  0  0  0  0  0  0  0  0  0  0  0
   32.3969   11.9313   13.8622 H   0  0  0  0  0  0  0  0  0  0  0  0
   30.6173    9.1816   16.2145 H   0  0  0  0  0  0  0  0  0  0  0  0
   34.7672   11.3528    8.0688 H   0  0  0  0  0  0  0  0  0  0  0  0
   34.0871   11.3522    6.4036 H   0  0  0  0  0  0  0  0  0  0  0  0
   33.7155   12.7251    7.5053 H   0  0  0  0  0  0  0  0  0  0  0  0
   33.4572   11.6249   10.9276 H   0  0  0  0  0  0  0  0  0  0  0  0
   29.6146   10.2161   11.3104 H   0  0  0  0  0  0  0  0  0  0  0  0
   30.5626   11.7029   11.2854 H   0  0  0  0  0  0  0  0  0  0  0  0
   29.4734    7.5645    8.7542 H   0  0  0  0  0  0  0  0  0  0  0  0
   29.1675    8.3722   10.2924 H   0  0  0  0  0  0  0  0  0  0  0  0
   30.4290    8.7225    6.8068 H   0  0  0  0  0  0  0  0  0  0  0  0
   27.4257    6.3894    7.7285 H   0  0  0  0  0  0  0  0  0  0  0  0
   25.3679    9.4442    7.9170 H   0  0  0  0  0  0  0  0  0  0  0  0
  2  1  1  0
  3  2  1  0
  4  3  2  0
  5  2  2  0
  7  3  1  0
  9  8  2  0
 10  9  1  0
 11  9  1  0
 12 11  1  0
 13 11  2  0
 14 13  1  0
 14  1  1  0
 15 13  1  0
 16 15  1  0
 17 15  2  0
 17  8  1  0
 18  6  2  0
 19  6  1  0
 20  6  1  0
 21  6  1  0
 21 16  1  0
  1 22  1  0
  5 23  1  0
  5 24  1  0
  7 25  1  0
 10 26  1  0
 10 27  1  0
 10 28  1  0
 12 29  1  0
 14 30  1  0
 14 31  1  0
 16 32  1  0
 16 33  1  0
 17 34  1  0
 19 35  1  0
 20 36  1  0
M  END
