
     RDKit          3D

 36 36  0  0  0  0  0  0  0  0999 V2000
   31.6843    9.1505   11.7493 N   0  0  0  0  0  0  0  0  0  0  0  0
   31.2229    9.1776   13.1005 C   0  0  0  0  0  0  0  0  0  0  0  0
   31.8229   10.1450   14.0069 C   0  0  0  0  0  0  0  0  0  0  0  0
   32.3064   11.2104   13.5400 O   0  0  0  0  0  0  0  0  0  0  0  0
   30.3239    8.3015   13.5632 C   0  0  0  0  0  0  0  0  0  0  0  0
   27.3748    7.6987    9.0231 P   0  0  0  0  0  0  0  0  0  0  0  0
   31.8899    9.8742   15.3660 O   0  0  0  0  0  0  0  0  0  0  0  0
   32.9359    9.3257    6.9051 N   0  0  0  0  0  0  0  0  0  0  0  0
   33.4645   10.0664    7.9098 C   0  0  0  0  0  0  0  0  0  0  0  0
   34.7629   10.7731    7.6850 C   0  0  0  0  0  0  0  0  0  0  0  0
   32.7911   10.1607    9.1380 C   0  0  0  0  0  0  0  0  0  0  0  0
   33.3035   10.9391   10.1787 O   0  0  0  0  0  0  0  0  0  0  0  0
   31.5908    9.4527    9.3288 C   0  0  0  0  0  0  0  0  0  0  0  0
   30.8773    9.6271   10.6414 C   0  0  0  0  0  0  0  0  0  0  0  0
   31.0921    8.6396    8.2770 C   0  0  0  0  0  0  0  0  0  0  0  0
   29.8485    7.7732    8.3633 C   0  0  0  0  0  0  0  0  0  0  0  0
   31.7817    8.6343    7.0549 C   0  0  0  0  0  0  0  0  0  0  0  0
   27.3549    6.6805   10.1335 O   0  0  0  0  0  0  0  0  0  0  0  0
   27.0345    6.9629    7.5490 O   0  0  0  0  0  0  0  0  0  0  0  0
   26.2287    8.8874    9.3105 O   0  0  0  0  0  0  0  0  0  0  0  0
   28.8619    8.5051    9.0359 O   0  0  0  0  0  0  0  0  0  0  0  0
   32.6079    8.7001   11.5536 H   0  0  0  0  0  0  0  0  0  0  0  0
   30.0003    8.3200   14.5962 H   0  0  0  0  0  0  0  0  0  0  0  0
   29.8658    7.5468   12.9439 H   0  0  0  0  0  0  0  0  0  0  0  0
   32.3158   10.5337   16.0062 H   0  0  0  0  0  0  0  0  0  0  0  0
   35.4805   10.0976    7.1735 H   0  0  0  0  0  0  0  0  0  0  0  0
   34.6122   11.6675    7.0435 H   0  0  0  0  0  0  0  0  0  0  0  0
   35.1854   11.1097    8.6551 H   0  0  0  0  0  0  0  0  0  0  0  0
   32.9079   11.8257   10.4633 H   0  0  0  0  0  0  0  0  0  0  0  0
   29.8945    9.1389   10.6516 H   0  0  0  0  0  0  0  0  0  0  0  0
   30.6809   10.7118   10.7849 H   0  0  0  0  0  0  0  0  0  0  0  0
   29.5251    7.5622    7.3189 H   0  0  0  0  0  0  0  0  0  0  0  0
   30.0090    6.7814    8.8250 H   0  0  0  0  0  0  0  0  0  0  0  0
   31.4122    8.0511    6.2205 H   0  0  0  0  0  0  0  0  0  0  0  0
   26.9334    7.7129    6.9099 H   0  0  0  0  0  0  0  0  0  0  0  0
   25.3589    8.4149    9.2720 H   0  0  0  0  0  0  0  0  0  0  0  0
  2  1  1  0
  3  2  1  0
  4  3  2  0
  5  2  2  0
  7  3  1  0
  9  8  2  0
 10  9  1  0
 11  9  1  0
 12 11  1  0
 13 11  2  0
 14 13  1  0
 14  1  1  0
 15 13  1  0
 16 15  1  0
 17 15  2  0
 17  8  1  0
 18  6  2  0
 19  6  1  0
 20  6  1  0
 21  6  1  0
 21 16  1  0
  1 22  1  0
  5 23  1  0
  5 24  1  0
  7 25  1  0
 10 26  1  0
 10 27  1  0
 10 28  1  0
 12 29  1  0
 14 30  1  0
 14 31  1  0
 16 32  1  0
 16 33  1  0
 17 34  1  0
 19 35  1  0
 20 36  1  0
M  END
