
     RDKit          3D

 19 18  0  0  0  0  0  0  0  0999 V2000
   85.0281  101.8571   47.0190 P   0  0  0  0  0  0  0  0  0  0  0  0
   84.4748  100.5249   45.9360 C   0  0  0  0  0  0  0  0  0  0  0  0
   84.3782   99.3031   46.7227 N   0  0  0  0  0  0  0  0  0  0  0  0
   84.1899  101.9073   48.2750 O   0  0  0  0  0  0  0  0  0  0  0  0
   82.9964   98.8473   46.8791 C   0  0  0  0  0  0  0  0  0  0  0  0
   84.8801  103.2790   46.1567 O   0  0  0  0  0  0  0  0  0  0  0  0
   82.9621   97.6128   47.7271 C   0  0  0  0  0  0  0  0  0  0  0  0
   86.6370  101.6207   47.4297 O   0  0  0  0  0  0  0  0  0  0  0  0
   84.0177   97.1286   48.2235 O   0  0  0  0  0  0  0  0  0  0  0  0
   81.7475   97.0059   47.9649 O   0  0  0  0  0  0  0  0  0  0  0  0
   85.2012  100.4051   45.1025 H   0  0  0  0  0  0  0  0  0  0  0  0
   83.4785  100.7916   45.5197 H   0  0  0  0  0  0  0  0  0  0  0  0
   84.9327   98.5508   46.2472 H   0  0  0  0  0  0  0  0  0  0  0  0
   84.7780   99.4870   47.6741 H   0  0  0  0  0  0  0  0  0  0  0  0
   82.3834   99.6347   47.3711 H   0  0  0  0  0  0  0  0  0  0  0  0
   82.5539   98.6129   45.8855 H   0  0  0  0  0  0  0  0  0  0  0  0
   84.7959  102.9974   45.2107 H   0  0  0  0  0  0  0  0  0  0  0  0
   87.1181  101.5920   46.5644 H   0  0  0  0  0  0  0  0  0  0  0  0
   80.9007   97.5547   48.0560 H   0  0  0  0  0  0  0  0  0  0  0  0
  2  1  1  0
  3  2  1  0
  4  1  2  0
  5  3  1  0
  6  1  1  0
  7  5  1  0
  8  1  1  0
  9  7  2  0
 10  7  1  0
  2 11  1  0
  2 12  1  0
  3 13  1  0
  3 14  1  0
  5 15  1  0
  5 16  1  0
  6 17  1  0
  8 18  1  0
 10 19  1  0
M  CHG  1   3   1
M  END
