
     RDKit          3D

 19 18  0  0  0  0  0  0  0  0999 V2000
   34.9181   96.9127   47.2086 P   0  0  0  0  0  0  0  0  0  0  0  0
   35.4658   98.2956   46.1934 C   0  0  0  0  0  0  0  0  0  0  0  0
   35.7677   99.4157   47.0709 N   0  0  0  0  0  0  0  0  0  0  0  0
   35.7168   96.8365   48.4888 O   0  0  0  0  0  0  0  0  0  0  0  0
   36.3741  100.5354   46.3513 C   0  0  0  0  0  0  0  0  0  0  0  0
   35.1358   95.5330   46.2958 O   0  0  0  0  0  0  0  0  0  0  0  0
   36.5613  101.6898   47.2848 C   0  0  0  0  0  0  0  0  0  0  0  0
   33.2904   97.0940   47.5707 O   0  0  0  0  0  0  0  0  0  0  0  0
   36.2488  101.6012   48.5052 O   0  0  0  0  0  0  0  0  0  0  0  0
   37.0903  102.8630   46.7913 O   0  0  0  0  0  0  0  0  0  0  0  0
   34.6624   98.5602   45.4713 H   0  0  0  0  0  0  0  0  0  0  0  0
   36.3776   97.9910   45.6337 H   0  0  0  0  0  0  0  0  0  0  0  0
   34.8788   99.7420   47.5216 H   0  0  0  0  0  0  0  0  0  0  0  0
   36.4383   99.0893   47.8078 H   0  0  0  0  0  0  0  0  0  0  0  0
   37.3671  100.2416   45.9442 H   0  0  0  0  0  0  0  0  0  0  0  0
   35.7178  100.8545   45.5114 H   0  0  0  0  0  0  0  0  0  0  0  0
   35.1049   95.8406   45.3546 H   0  0  0  0  0  0  0  0  0  0  0  0
   32.8231   96.9734   46.7059 H   0  0  0  0  0  0  0  0  0  0  0  0
   37.9869  103.2060   47.1150 H   0  0  0  0  0  0  0  0  0  0  0  0
  2  1  1  0
  3  2  1  0
  4  1  2  0
  5  3  1  0
  6  1  1  0
  7  5  1  0
  8  1  1  0
  9  7  2  0
 10  7  1  0
  2 11  1  0
  2 12  1  0
  3 13  1  0
  3 14  1  0
  5 15  1  0
  5 16  1  0
  6 17  1  0
  8 18  1  0
 10 19  1  0
M  CHG  1   3   1
M  END
