
     RDKit          3D

 44 46  0  0  0  0  0  0  0  0999 V2000
  118.5040   10.6215  -50.7322 N   0  0  0  0  0  0  0  0  0  0  0  0
  117.4160   11.3918  -48.7849 N   0  0  0  0  0  0  0  0  0  0  0  0
  119.8272    9.7430  -52.5112 N   0  0  0  0  0  0  0  0  0  0  0  0
  113.3551    8.5767  -44.0000 N   0  0  0  0  0  0  0  0  0  0  0  0
  122.7857    5.6806  -44.2164 N   0  0  0  0  0  0  0  0  0  0  0  0
  120.1393    9.1124  -50.1301 C   0  0  0  0  0  0  0  0  0  0  0  0
  119.4965    9.8176  -51.1377 C   0  0  0  0  0  0  0  0  0  0  0  0
  118.3452   10.5540  -49.4124 C   0  0  0  0  0  0  0  0  0  0  0  0
  116.6266   11.0443  -47.6674 C   0  0  0  0  0  0  0  0  0  0  0  0
  121.2539    8.1966  -50.3059 C   0  0  0  0  0  0  0  0  0  0  0  0
  121.7732    7.4283  -49.1941 C   0  0  0  0  0  0  0  0  0  0  0  0
  117.3107   10.6377  -46.5217 C   0  0  0  0  0  0  0  0  0  0  0  0
  116.6061   10.3187  -45.3737 C   0  0  0  0  0  0  0  0  0  0  0  0
  115.2073   10.4347  -45.3613 C   0  0  0  0  0  0  0  0  0  0  0  0
  114.5165   10.7645  -46.5229 C   0  0  0  0  0  0  0  0  0  0  0  0
  115.2175   11.1089  -47.6620 C   0  0  0  0  0  0  0  0  0  0  0  0
  121.5841    6.0429  -49.1874 C   0  0  0  0  0  0  0  0  0  0  0  0
  122.0520    5.2870  -48.1179 C   0  0  0  0  0  0  0  0  0  0  0  0
  122.7114    5.9110  -47.0492 C   0  0  0  0  0  0  0  0  0  0  0  0
  122.8940    7.3013  -47.0516 C   0  0  0  0  0  0  0  0  0  0  0  0
  122.4217    8.0616  -48.1212 C   0  0  0  0  0  0  0  0  0  0  0  0
  121.8050    8.0797  -51.4260 O   0  0  0  0  0  0  0  0  0  0  0  0
  115.2966    9.3463  -43.3871 O   0  0  0  0  0  0  0  0  0  0  0  0
  114.4892   10.7986  -42.7015 O   0  0  0  0  0  0  0  0  0  0  0  0
  124.7730    4.8437  -45.7359 O   0  0  0  0  0  0  0  0  0  0  0  0
  122.6923    3.5696  -45.7922 O   0  0  0  0  0  0  0  0  0  0  0  0
  119.4712    9.5545  -48.6548 S   0  0  0  0  0  0  0  0  0  0  0  0
  114.3032   10.0158  -43.9368 S   0  0  0  0  0  0  0  0  0  0  0  0
  123.2777    4.9471  -45.6974 S   0  0  0  0  0  0  0  0  0  0  0  0
  117.1730   12.2659  -49.3065 H   0  0  0  0  0  0  0  0  0  0  0  0
  119.4312   10.4516  -53.1681 H   0  0  0  0  0  0  0  0  0  0  0  0
  120.2689    8.9050  -52.9431 H   0  0  0  0  0  0  0  0  0  0  0  0
  113.7771    7.9206  -44.6965 H   0  0  0  0  0  0  0  0  0  0  0  0
  112.4195    8.8505  -44.3749 H   0  0  0  0  0  0  0  0  0  0  0  0
  123.1014    5.0522  -43.4440 H   0  0  0  0  0  0  0  0  0  0  0  0
  121.7411    5.6726  -44.2041 H   0  0  0  0  0  0  0  0  0  0  0  0
  118.3919   10.5706  -46.5099 H   0  0  0  0  0  0  0  0  0  0  0  0
  117.1423   10.0102  -44.4849 H   0  0  0  0  0  0  0  0  0  0  0  0
  113.4368   10.8390  -46.5261 H   0  0  0  0  0  0  0  0  0  0  0  0
  114.6287   11.4753  -48.4759 H   0  0  0  0  0  0  0  0  0  0  0  0
  121.0775    5.5468  -50.0069 H   0  0  0  0  0  0  0  0  0  0  0  0
  121.8946    4.2160  -48.1194 H   0  0  0  0  0  0  0  0  0  0  0  0
  123.3873    7.7926  -46.2226 H   0  0  0  0  0  0  0  0  0  0  0  0
  122.5417    9.1378  -48.1002 H   0  0  0  0  0  0  0  0  0  0  0  0
  7  1  1  0
  7  6  2  0
  7  3  1  0
  8  2  1  0
  8  1  2  0
  9  2  1  0
 10  6  1  0
 11 10  1  0
 12  9  2  0
 13 12  1  0
 14 13  2  0
 15 14  1  0
 16 15  2  0
 16  9  1  0
 17 11  2  0
 18 17  1  0
 19 18  2  0
 20 19  1  0
 21 20  2  0
 21 11  1  0
 22 10  2  0
 27  8  1  0
 27  6  1  0
 28 23  2  0
 28 24  2  0
 28 14  1  0
 28  4  1  0
 29 26  2  0
 29 25  2  0
 29 19  1  0
 29  5  1  0
  2 30  1  0
  3 31  1  0
  3 32  1  0
  4 33  1  0
  4 34  1  0
  5 35  1  0
  5 36  1  0
 12 37  1  0
 13 38  1  0
 15 39  1  0
 16 40  1  0
 17 41  1  0
 18 42  1  0
 20 43  1  0
 21 44  1  0
M  END
