
     RDKit          3D

 73 77  0  0  0  0  0  0  0  0999 V2000
   17.7925    6.7490   10.6878 P   0  0  1  0  0  0  0  0  0  0  0  0
   16.2840    8.6748   12.0568 P   0  0  2  0  0  0  0  0  0  0  0  0
   20.0422    2.0935   13.1374 C   0  0  1  0  0  0  0  0  0  0  0  0
   11.9081    7.8599   14.6253 C   0  0  1  0  0  0  0  0  0  0  0  0
   20.5829   -1.8714   16.3009 N   0  0  0  0  0  0  0  0  0  0  0  0
   11.2336    9.1651   14.6371 N   0  0  0  0  0  0  0  0  0  0  0  0
   17.4944    5.4441    9.6757 O   0  0  0  0  0  0  0  0  0  0  0  0
   15.8776    9.9079   11.0019 O   0  0  0  0  0  0  0  0  0  0  0  0
   21.4221   -0.8084   16.0810 C   0  0  0  0  0  0  0  0  0  0  0  0
   20.2395    2.3080   11.6450 C   0  0  2  0  0  0  0  0  0  0  0  0
   12.0681    7.2904   13.2189 C   0  0  2  0  0  0  0  0  0  0  0  0
   11.9647   10.3594   14.3387 C   0  0  0  0  0  0  0  0  0  0  0  0
   18.5572    7.7941    9.9179 O   0  0  0  0  0  0  0  0  0  0  0  0
   21.4010    1.6883   11.1415 O   0  0  0  0  0  0  0  0  0  0  0  0
   10.8815    6.7787   12.6613 O   0  0  0  0  0  0  0  0  0  0  0  0
   17.5772    8.9922   12.7729 O   0  0  0  0  0  0  0  0  0  0  0  0
   20.2576    3.8302   11.5555 C   0  0  2  0  0  0  0  0  0  0  0  0
   13.1243    6.2345   13.4668 C   0  0  2  0  0  0  0  0  0  0  0  0
   11.3625   11.5638   14.3266 C   0  0  0  0  0  0  0  0  0  0  0  0
   21.1218    0.1295   15.1376 N   0  0  0  0  0  0  0  0  0  0  0  0
   16.2654    7.2595   11.1525 O   0  0  0  0  0  0  0  0  0  0  0  0
   21.5662    4.3538   11.5325 O   0  0  0  0  0  0  0  0  0  0  0  0
   12.5495    5.0102   13.8841 O   0  0  0  0  0  0  0  0  0  0  0  0
   19.9705   -0.0265   14.4328 C   0  0  0  0  0  0  0  0  0  0  0  0
   19.5396    4.2549   12.8582 C   0  0  2  0  0  0  0  0  0  0  0  0
   13.9658    6.8921   14.5887 C   0  0  2  0  0  0  0  0  0  0  0  0
    9.8718   11.6880   14.5650 C   0  0  0  0  0  0  0  0  0  0  0  0
   19.1669    3.0963   13.5667 O   0  0  0  0  0  0  0  0  0  0  0  0
   13.2058    7.9435   15.1750 O   0  0  0  0  0  0  0  0  0  0  0  0
   19.1057   -1.0519   14.6394 C   0  0  0  0  0  0  0  0  0  0  0  0
   18.2900    5.0883   12.5884 C   0  0  0  0  0  0  0  0  0  0  0  0
   15.2920    7.4536   14.0565 C   0  0  0  0  0  0  0  0  0  0  0  0
    9.1828   10.4043   14.9196 C   0  0  0  0  0  0  0  0  0  0  0  0
   18.7102    6.3138   12.0390 O   0  0  0  0  0  0  0  0  0  0  0  0
   15.0076    8.4908   13.1464 O   0  0  0  0  0  0  0  0  0  0  0  0
   19.4178   -2.0237   15.5988 C   0  0  0  0  0  0  0  0  0  0  0  0
    9.8318    9.2404   14.9498 C   0  0  0  0  0  0  0  0  0  0  0  0
   18.5722   -3.1403   15.8554 N   0  0  0  0  0  0  0  0  0  0  0  0
   12.1388   12.8061   14.0805 C   0  0  0  0  0  0  0  0  0  0  0  0
   18.0195   -0.9192   13.8412 N   0  0  0  0  0  0  0  0  0  0  0  0
   13.5590   12.7966   13.9763 N   0  0  0  0  0  0  0  0  0  0  0  0
   11.5430   13.9121   13.9957 O   0  0  0  0  0  0  0  0  0  0  0  0
   18.2893    0.2288   13.1525 C   0  0  0  0  0  0  0  0  0  0  0  0
   19.4899    0.7841   13.4830 N   0  0  0  0  0  0  0  0  0  0  0  0
   21.0173    2.2292   13.6636 H   0  0  0  0  0  0  0  0  0  0  0  0
   11.3267    7.1502   15.2576 H   0  0  0  0  0  0  0  0  0  0  0  0
   17.2858    5.8320    8.7886 H   0  0  0  0  0  0  0  0  0  0  0  0
   16.5795   10.5946   11.1323 H   0  0  0  0  0  0  0  0  0  0  0  0
   22.3324   -0.7164   16.6570 H   0  0  0  0  0  0  0  0  0  0  0  0
   19.3601    1.9317   11.0802 H   0  0  0  0  0  0  0  0  0  0  0  0
   12.4761    8.0604   12.5290 H   0  0  0  0  0  0  0  0  0  0  0  0
   13.0150   10.2595   14.1193 H   0  0  0  0  0  0  0  0  0  0  0  0
   21.5792    2.0428   10.2318 H   0  0  0  0  0  0  0  0  0  0  0  0
   10.2043    6.6932   13.3814 H   0  0  0  0  0  0  0  0  0  0  0  0
   19.7005    4.1580   10.6464 H   0  0  0  0  0  0  0  0  0  0  0  0
   13.7131    6.0520   12.5406 H   0  0  0  0  0  0  0  0  0  0  0  0
   21.8972    4.3341   12.4682 H   0  0  0  0  0  0  0  0  0  0  0  0
   12.1816    5.1147   14.7992 H   0  0  0  0  0  0  0  0  0  0  0  0
   20.2269    4.8504   13.5027 H   0  0  0  0  0  0  0  0  0  0  0  0
   14.2087    6.1425   15.3743 H   0  0  0  0  0  0  0  0  0  0  0  0
    9.6990   12.4097   15.3917 H   0  0  0  0  0  0  0  0  0  0  0  0
    9.3963   12.0953   13.6476 H   0  0  0  0  0  0  0  0  0  0  0  0
   17.7874    5.2940   13.5566 H   0  0  0  0  0  0  0  0  0  0  0  0
   17.5834    4.4962   11.9646 H   0  0  0  0  0  0  0  0  0  0  0  0
   15.8844    7.8591   14.9057 H   0  0  0  0  0  0  0  0  0  0  0  0
   15.8550    6.6112   13.5961 H   0  0  0  0  0  0  0  0  0  0  0  0
    8.1242   10.4268   15.1461 H   0  0  0  0  0  0  0  0  0  0  0  0
    9.2798    8.3427   15.2009 H   0  0  0  0  0  0  0  0  0  0  0  0
   18.8368   -3.8454   16.5787 H   0  0  0  0  0  0  0  0  0  0  0  0
   17.6811   -3.2695   15.3266 H   0  0  0  0  0  0  0  0  0  0  0  0
   14.1244   12.3974   14.7583 H   0  0  0  0  0  0  0  0  0  0  0  0
   14.0707   13.0190   13.0965 H   0  0  0  0  0  0  0  0  0  0  0  0
   17.5929    0.6691   12.4518 H   0  0  0  0  0  0  0  0  0  0  0  0
  4  6  1  0
  1  7  1  6
  2  8  1  6
  9  5  2  0
 10  3  1  0
 11  4  1  0
 12  6  1  0
 13  1  2  0
 10 14  1  0
 11 15  1  0
 16  2  2  0
 17 10  1  0
 18 11  1  0
 19 12  2  0
 20  9  1  0
 21  2  1  0
 21  1  1  0
 17 22  1  0
 18 23  1  0
 24 20  2  0
 25 17  1  0
 26 18  1  0
 27 19  1  0
 28 25  1  0
 28  3  1  0
 29 26  1  0
 29  4  1  0
 30 24  1  0
 25 31  1  0
 26 32  1  0
 33 27  1  0
 34 31  1  0
 34  1  1  0
 35 32  1  0
 35  2  1  0
 36 30  2  0
 36  5  1  0
 37 33  2  0
 37  6  1  0
 38 36  1  0
 39 19  1  0
 40 30  1  0
 41 39  1  0
 42 39  2  0
 43 40  2  0
 44 43  1  0
 44 24  1  0
  3 44  1  0
  3 45  1  1
  4 46  1  1
  7 47  1  0
  8 48  1  0
  9 49  1  0
 10 50  1  6
 11 51  1  6
 12 52  1  0
 14 53  1  0
 15 54  1  0
 17 55  1  6
 18 56  1  6
 22 57  1  0
 23 58  1  0
 25 59  1  1
 26 60  1  1
 27 61  1  0
 27 62  1  0
 31 63  1  0
 31 64  1  0
 32 65  1  0
 32 66  1  0
 33 67  1  0
 37 68  1  0
 38 69  1  0
 38 70  1  0
 41 71  1  0
 41 72  1  0
 43 73  1  0
M  END
