
     RDKit          3D

 73 77  0  0  0  0  0  0  0  0999 V2000
  -19.8820   44.3646    5.4371 P   0  0  1  0  0  0  0  0  0  0  0  0
  -18.4588   42.3980    6.8385 P   0  0  2  0  0  0  0  0  0  0  0  0
  -22.8950   48.5640    7.9162 C   0  0  1  0  0  0  0  0  0  0  0  0
  -14.6719   42.9973   10.2949 C   0  0  1  0  0  0  0  0  0  0  0  0
  -24.7833   52.9210    9.7958 N   0  0  0  0  0  0  0  0  0  0  0  0
  -13.9670   41.7040   10.2754 N   0  0  0  0  0  0  0  0  0  0  0  0
  -19.5118   45.7714    4.6013 O   0  0  0  0  0  0  0  0  0  0  0  0
  -17.7838   41.3462    5.7259 O   0  0  0  0  0  0  0  0  0  0  0  0
  -25.4253   51.9176    9.1142 C   0  0  0  0  0  0  0  0  0  0  0  0
  -22.8301   48.4854    6.3993 C   0  0  2  0  0  0  0  0  0  0  0  0
  -14.5854   43.7385    8.9667 C   0  0  2  0  0  0  0  0  0  0  0  0
  -14.4127   40.6496    9.4123 C   0  0  0  0  0  0  0  0  0  0  0  0
  -20.4276   43.3433    4.4727 O   0  0  0  0  0  0  0  0  0  0  0  0
  -23.9314   49.0876    5.7577 O   0  0  0  0  0  0  0  0  0  0  0  0
  -13.3449   44.3687    8.7800 O   0  0  0  0  0  0  0  0  0  0  0  0
  -19.8157   41.9037    7.2873 O   0  0  0  0  0  0  0  0  0  0  0  0
  -22.7323   46.9822    6.1830 C   0  0  2  0  0  0  0  0  0  0  0  0
  -15.7200   44.7297    9.1297 C   0  0  2  0  0  0  0  0  0  0  0  0
  -13.7607   39.4716    9.3481 C   0  0  0  0  0  0  0  0  0  0  0  0
  -24.7270   50.8528    8.6234 N   0  0  0  0  0  0  0  0  0  0  0  0
  -18.4201   43.9185    6.1221 O   0  0  0  0  0  0  0  0  0  0  0  0
  -23.9963   46.4056    5.9463 O   0  0  0  0  0  0  0  0  0  0  0  0
  -15.2974   45.8624    9.8589 O   0  0  0  0  0  0  0  0  0  0  0  0
  -23.3838   50.8297    8.8257 C   0  0  0  0  0  0  0  0  0  0  0  0
  -22.1546   46.4876    7.5328 C   0  0  2  0  0  0  0  0  0  0  0  0
  -16.7259   43.9143    9.9706 C   0  0  2  0  0  0  0  0  0  0  0  0
  -12.5017   39.2370   10.1556 C   0  0  0  0  0  0  0  0  0  0  0  0
  -22.0081   47.5923    8.3943 O   0  0  0  0  0  0  0  0  0  0  0  0
  -16.0432   42.8237   10.5748 O   0  0  0  0  0  0  0  0  0  0  0  0
  -22.7184   51.8022    9.4990 C   0  0  0  0  0  0  0  0  0  0  0  0
  -20.8028   45.7975    7.3674 C   0  0  0  0  0  0  0  0  0  0  0  0
  -17.8960   43.3851    9.1236 C   0  0  0  0  0  0  0  0  0  0  0  0
  -12.1210   40.3649   11.0671 C   0  0  0  0  0  0  0  0  0  0  0  0
  -21.0336   44.6111    6.6477 O   0  0  0  0  0  0  0  0  0  0  0  0
  -17.3849   42.5166    8.1383 O   0  0  0  0  0  0  0  0  0  0  0  0
  -23.4316   52.8937   10.0059 C   0  0  0  0  0  0  0  0  0  0  0  0
  -12.8150   41.5030   11.1125 C   0  0  0  0  0  0  0  0  0  0  0  0
  -22.7969   53.9528   10.7153 N   0  0  0  0  0  0  0  0  0  0  0  0
  -14.2597   38.3642    8.4922 C   0  0  0  0  0  0  0  0  0  0  0  0
  -21.4048   51.4941    9.5972 N   0  0  0  0  0  0  0  0  0  0  0  0
  -15.5167   38.4398    7.8263 N   0  0  0  0  0  0  0  0  0  0  0  0
  -13.5802   37.3108    8.3673 O   0  0  0  0  0  0  0  0  0  0  0  0
  -21.3290   50.2915    8.9573 C   0  0  0  0  0  0  0  0  0  0  0  0
  -22.5253   49.8705    8.4583 N   0  0  0  0  0  0  0  0  0  0  0  0
  -23.9246   48.3038    8.2605 H   0  0  0  0  0  0  0  0  0  0  0  0
  -14.2417   43.6438   11.0963 H   0  0  0  0  0  0  0  0  0  0  0  0
  -20.2605   45.8982    3.9657 H   0  0  0  0  0  0  0  0  0  0  0  0
  -17.6552   40.4998    6.2240 H   0  0  0  0  0  0  0  0  0  0  0  0
  -26.4953   51.9692    8.9680 H   0  0  0  0  0  0  0  0  0  0  0  0
  -21.8965   48.9576    6.0257 H   0  0  0  0  0  0  0  0  0  0  0  0
  -14.8052   43.0658    8.1063 H   0  0  0  0  0  0  0  0  0  0  0  0
  -15.2831   40.8362    8.8043 H   0  0  0  0  0  0  0  0  0  0  0  0
  -24.4474   48.3826    5.2871 H   0  0  0  0  0  0  0  0  0  0  0  0
  -13.3257   45.1381    9.4068 H   0  0  0  0  0  0  0  0  0  0  0  0
  -22.0587   46.7804    5.3195 H   0  0  0  0  0  0  0  0  0  0  0  0
  -16.1381   45.0324    8.1400 H   0  0  0  0  0  0  0  0  0  0  0  0
  -24.1392   46.4401    4.9645 H   0  0  0  0  0  0  0  0  0  0  0  0
  -14.9005   46.4921    9.2021 H   0  0  0  0  0  0  0  0  0  0  0  0
  -22.8579   45.7687    8.0133 H   0  0  0  0  0  0  0  0  0  0  0  0
  -17.1529   44.5549   10.7742 H   0  0  0  0  0  0  0  0  0  0  0  0
  -12.6373   38.3251   10.7753 H   0  0  0  0  0  0  0  0  0  0  0  0
  -11.6576   39.0560    9.4568 H   0  0  0  0  0  0  0  0  0  0  0  0
  -20.0827   46.5075    6.9001 H   0  0  0  0  0  0  0  0  0  0  0  0
  -20.4130   45.5297    8.3717 H   0  0  0  0  0  0  0  0  0  0  0  0
  -18.4241   44.2656    8.6938 H   0  0  0  0  0  0  0  0  0  0  0  0
  -18.6019   42.8286    9.7778 H   0  0  0  0  0  0  0  0  0  0  0  0
  -11.2503   40.2502   11.7006 H   0  0  0  0  0  0  0  0  0  0  0  0
  -12.4868   42.2873   11.7838 H   0  0  0  0  0  0  0  0  0  0  0  0
  -22.2984   54.7090   10.1958 H   0  0  0  0  0  0  0  0  0  0  0  0
  -22.8202   53.9883   11.7587 H   0  0  0  0  0  0  0  0  0  0  0  0
  -15.7688   37.7064    7.1270 H   0  0  0  0  0  0  0  0  0  0  0  0
  -16.2751   39.0940    8.1136 H   0  0  0  0  0  0  0  0  0  0  0  0
  -20.4146   49.7168    8.8993 H   0  0  0  0  0  0  0  0  0  0  0  0
  4  6  1  0
  1  7  1  6
  2  8  1  6
  9  5  2  0
 10  3  1  0
 11  4  1  0
 12  6  1  0
 13  1  2  0
 10 14  1  0
 11 15  1  0
 16  2  2  0
 17 10  1  0
 18 11  1  0
 19 12  2  0
 20  9  1  0
 21  2  1  0
 21  1  1  0
 17 22  1  0
 18 23  1  0
 24 20  2  0
 25 17  1  0
 26 18  1  0
 27 19  1  0
 28 25  1  0
 28  3  1  0
 29 26  1  0
 29  4  1  0
 30 24  1  0
 25 31  1  0
 26 32  1  0
 33 27  1  0
 34 31  1  0
 34  1  1  0
 35 32  1  0
 35  2  1  0
 36 30  2  0
 36  5  1  0
 37 33  2  0
 37  6  1  0
 38 36  1  0
 39 19  1  0
 40 30  1  0
 41 39  1  0
 42 39  2  0
 43 40  2  0
  3 44  1  0
 44 24  1  0
 44 43  1  0
  3 45  1  1
  4 46  1  1
  7 47  1  0
  8 48  1  0
  9 49  1  0
 10 50  1  6
 11 51  1  6
 12 52  1  0
 14 53  1  0
 15 54  1  0
 17 55  1  6
 18 56  1  6
 22 57  1  0
 23 58  1  0
 25 59  1  1
 26 60  1  1
 27 61  1  0
 27 62  1  0
 31 63  1  0
 31 64  1  0
 32 65  1  0
 32 66  1  0
 33 67  1  0
 37 68  1  0
 38 69  1  0
 38 70  1  0
 41 71  1  0
 41 72  1  0
 43 73  1  0
M  END
