
     RDKit          3D

 35 38  0  0  0  0  0  0  0  0999 V2000
   23.8702   32.9163   12.6096 P   0  0  1  0  0  0  0  0  0  0  0  0
   22.8434   31.3642   10.8427 C   0  0  0  0  0  0  0  0  0  0  0  0
   24.0659   32.0030   11.1842 O   0  0  0  0  0  0  0  0  0  0  0  0
   21.6997   32.3809   10.7068 C   0  0  1  0  0  0  0  0  0  0  0  0
   20.4569   31.8524   10.2927 O   0  0  0  0  0  0  0  0  0  0  0  0
   21.4207   32.9966   12.0535 C   0  0  1  0  0  0  0  0  0  0  0  0
   22.4551   33.8438   12.4810 O   0  0  0  0  0  0  0  0  0  0  0  0
   20.1470   33.7448   11.7493 C   0  0  1  0  0  0  0  0  0  0  0  0
   20.4560   35.0147   11.2295 O   0  0  0  0  0  0  0  0  0  0  0  0
   19.5151   32.8644   10.6473 C   0  0  2  0  0  0  0  0  0  0  0  0
   16.9265   30.3527   14.3897 N   0  0  0  0  0  0  0  0  0  0  0  0
   23.8056   32.0022   13.8113 O   0  0  0  0  0  0  0  0  0  0  0  0
   18.2476   30.7405   14.3700 C   0  0  0  0  0  0  0  0  0  0  0  0
   19.0924   30.4689   15.4817 N   0  0  0  0  0  0  0  0  0  0  0  0
   25.1622   33.9793   12.7532 O   0  0  0  0  0  0  0  0  0  0  0  0
   18.7611   31.3906   13.2828 N   0  0  0  0  0  0  0  0  0  0  0  0
   17.9426   31.6424   12.2346 C   0  0  0  0  0  0  0  0  0  0  0  0
   16.6401   31.2804   12.2310 C   0  0  0  0  0  0  0  0  0  0  0  0
   16.1020   30.6144   13.3271 C   0  0  0  0  0  0  0  0  0  0  0  0
   14.8931   30.2630   13.3463 O   0  0  0  0  0  0  0  0  0  0  0  0
   16.0495   31.6679   11.0846 N   0  0  0  0  0  0  0  0  0  0  0  0
   17.0620   32.2783   10.4090 C   0  0  0  0  0  0  0  0  0  0  0  0
   18.2398   32.2763   11.0888 N   0  0  0  0  0  0  0  0  0  0  0  0
   22.5930   30.5786   11.5908 H   0  0  0  0  0  0  0  0  0  0  0  0
   22.9778   30.8543    9.8658 H   0  0  0  0  0  0  0  0  0  0  0  0
   22.0300   33.1580    9.9743 H   0  0  0  0  0  0  0  0  0  0  0  0
   21.2088   32.2171   12.8231 H   0  0  0  0  0  0  0  0  0  0  0  0
   19.5157   33.8392   12.6632 H   0  0  0  0  0  0  0  0  0  0  0  0
   20.8402   34.8608   10.3272 H   0  0  0  0  0  0  0  0  0  0  0  0
   19.3229   33.4825    9.7401 H   0  0  0  0  0  0  0  0  0  0  0  0
   16.5448   29.8548   15.2258 H   0  0  0  0  0  0  0  0  0  0  0  0
   18.7350   29.9370   16.3060 H   0  0  0  0  0  0  0  0  0  0  0  0
   20.0826   30.8004   15.4844 H   0  0  0  0  0  0  0  0  0  0  0  0
   25.4642   33.8848   13.6918 H   0  0  0  0  0  0  0  0  0  0  0  0
   16.9360   32.7200    9.4289 H   0  0  0  0  0  0  0  0  0  0  0  0
  3  2  1  0
  3  1  1  0
  4  2  1  0
  5  4  1  0
  6  4  1  0
  6  7  1  0
  7  1  1  0
  8  6  1  0
  8  9  1  0
 10  5  1  0
 10  8  1  0
 12  1  2  0
 13 11  1  0
 14 13  1  0
  1 15  1  1
 16 13  2  0
 17 16  1  0
 18 17  2  0
 19 18  1  0
 19 11  1  0
 20 19  2  0
 21 18  1  0
 22 21  2  0
 23 22  1  0
 23 17  1  0
 10 23  1  0
  2 24  1  0
  2 25  1  0
  4 26  1  6
  6 27  1  1
  8 28  1  1
  9 29  1  0
 10 30  1  6
 11 31  1  0
 14 32  1  0
 14 33  1  0
 15 34  1  0
 22 35  1  0
M  END
