
     RDKit          3D

 14 14  0  0  0  0  0  0  0  0999 V2000
  -12.4881  -20.1632  -14.8053 C   0  0  0  0  0  0  0  0  0  0  0  0
  -14.4455  -19.6984  -13.5504 O   0  0  0  0  0  0  0  0  0  0  0  0
  -13.8747  -20.4301  -14.4016 C   0  0  0  0  0  0  0  0  0  0  0  0
  -11.7985  -21.0951  -15.5212 N   0  0  0  0  0  0  0  0  0  0  0  0
  -14.5686  -21.4802  -14.9753 O   0  0  0  0  0  0  0  0  0  0  0  0
  -10.4933  -20.9114  -15.8651 C   0  0  0  0  0  0  0  0  0  0  0  0
   -9.8151  -19.7579  -15.4601 C   0  0  0  0  0  0  0  0  0  0  0  0
  -10.5042  -18.7811  -14.7400 C   0  0  0  0  0  0  0  0  0  0  0  0
  -11.8489  -18.9742  -14.4166 C   0  0  0  0  0  0  0  0  0  0  0  0
  -15.4544  -21.3258  -15.4421 H   0  0  0  0  0  0  0  0  0  0  0  0
   -9.9759  -21.6718  -16.4345 H   0  0  0  0  0  0  0  0  0  0  0  0
   -8.7733  -19.6164  -15.7168 H   0  0  0  0  0  0  0  0  0  0  0  0
   -9.9962  -17.8771  -14.4300 H   0  0  0  0  0  0  0  0  0  0  0  0
  -12.3716  -18.2182  -13.8440 H   0  0  0  0  0  0  0  0  0  0  0  0
  3  2  2  0
  3  1  1  0
  4  1  2  0
  5  3  1  0
  6  4  1  0
  7  6  2  0
  8  7  1  0
  9  8  2  0
  9  1  1  0
  5 10  1  0
  6 11  1  0
  7 12  1  0
  8 13  1  0
  9 14  1  0
M  END
