
     RDKit          3D

 44 44  0  0  0  0  0  0  0  0999 V2000
  -23.5292    1.4035   38.1247 N   0  0  0  0  0  0  0  0  0  0  0  0
  -24.8684    1.8971   38.5756 C   0  0  2  0  0  0  0  0  0  0  0  0
  -25.2332    1.1843   39.8431 C   0  0  0  0  0  0  0  0  0  0  0  0
  -24.8774    1.6456   40.9609 O   0  0  0  0  0  0  0  0  0  0  0  0
  -26.0358    1.7990   37.5388 C   0  0  0  0  0  0  0  0  0  0  0  0
  -27.3493    2.4691   38.0222 C   0  0  0  0  0  0  0  0  0  0  0  0
  -28.5013    2.2855   37.0724 C   0  0  0  0  0  0  0  0  0  0  0  0
  -29.6358    2.7606   37.3518 O   0  0  0  0  0  0  0  0  0  0  0  0
  -28.3459    1.5111   35.9371 O   0  0  0  0  0  0  0  0  0  0  0  0
  -23.6386    2.4117   32.4065 P   0  0  0  0  0  0  0  0  0  0  0  0
  -22.3516    2.9534   31.8329 O   0  0  0  0  0  0  0  0  0  0  0  0
  -24.3311    1.3114   31.3448 O   0  0  0  0  0  0  0  0  0  0  0  0
  -24.7059    3.6926   32.6375 O   0  0  0  0  0  0  0  0  0  0  0  0
  -23.3363    1.7466   33.9353 O   0  0  0  0  0  0  0  0  0  0  0  0
  -25.9456   -0.0021   39.7773 O   0  0  0  0  0  0  0  0  0  0  0  0
  -19.5641   -0.3296   35.2796 N   0  0  0  0  0  0  0  0  0  0  0  0
  -19.6754   -0.1304   36.6121 C   0  0  0  0  0  0  0  0  0  0  0  0
  -18.4435   -0.3320   37.4526 C   0  0  0  0  0  0  0  0  0  0  0  0
  -20.9266    0.2447   37.1627 C   0  0  0  0  0  0  0  0  0  0  0  0
  -21.0513    0.4402   38.5379 O   0  0  0  0  0  0  0  0  0  0  0  0
  -22.0557    0.4170   36.3054 C   0  0  0  0  0  0  0  0  0  0  0  0
  -23.4797    0.6782   36.8437 C   0  0  0  0  0  0  0  0  0  0  0  0
  -21.8705    0.1806   34.9082 C   0  0  0  0  0  0  0  0  0  0  0  0
  -22.9624    0.3898   33.8790 C   0  0  0  0  0  0  0  0  0  0  0  0
  -20.6064   -0.1881   34.4348 C   0  0  0  0  0  0  0  0  0  0  0  0
  -22.8780    2.2205   38.0489 H   0  0  0  0  0  0  0  0  0  0  0  0
  -24.7671    2.9756   38.8367 H   0  0  0  0  0  0  0  0  0  0  0  0
  -26.2459    0.7294   37.3236 H   0  0  0  0  0  0  0  0  0  0  0  0
  -25.7372    2.3033   36.5955 H   0  0  0  0  0  0  0  0  0  0  0  0
  -27.6808    2.0250   38.9790 H   0  0  0  0  0  0  0  0  0  0  0  0
  -27.1712    3.5547   38.1809 H   0  0  0  0  0  0  0  0  0  0  0  0
  -29.1218    1.3513   35.3056 H   0  0  0  0  0  0  0  0  0  0  0  0
  -24.0079    0.4266   31.6507 H   0  0  0  0  0  0  0  0  0  0  0  0
  -25.0044    3.6046   33.5778 H   0  0  0  0  0  0  0  0  0  0  0  0
  -26.1934   -0.5069   40.6198 H   0  0  0  0  0  0  0  0  0  0  0  0
  -18.1916    0.6092   37.9848 H   0  0  0  0  0  0  0  0  0  0  0  0
  -18.6184   -1.1438   38.1893 H   0  0  0  0  0  0  0  0  0  0  0  0
  -17.5768   -0.6165   36.8184 H   0  0  0  0  0  0  0  0  0  0  0  0
  -20.2844    0.3289   39.1885 H   0  0  0  0  0  0  0  0  0  0  0  0
  -24.0803    1.2409   36.1087 H   0  0  0  0  0  0  0  0  0  0  0  0
  -23.9390   -0.3237   36.9728 H   0  0  0  0  0  0  0  0  0  0  0  0
  -22.6160    0.0656   32.8699 H   0  0  0  0  0  0  0  0  0  0  0  0
  -23.8387   -0.2405   34.1405 H   0  0  0  0  0  0  0  0  0  0  0  0
  -20.4377   -0.3550   33.3785 H   0  0  0  0  0  0  0  0  0  0  0  0
  2  1  1  0
  3  2  1  0
  4  3  2  0
  2  5  1  0
  6  5  1  0
  7  6  1  0
  8  7  2  0
  9  7  1  0
 11 10  2  0
 12 10  1  0
 13 10  1  0
 14 10  1  0
 15  3  1  0
 17 16  2  0
 18 17  1  0
 19 17  1  0
 20 19  1  0
 21 19  2  0
 22 21  1  0
 22  1  1  0
 23 21  1  0
 24 23  1  0
 24 14  1  0
 25 23  2  0
 25 16  1  0
  1 26  1  0
  2 27  1  1
  5 28  1  0
  5 29  1  0
  6 30  1  0
  6 31  1  0
  9 32  1  0
 12 33  1  0
 13 34  1  0
 15 35  1  0
 18 36  1  0
 18 37  1  0
 18 38  1  0
 20 39  1  0
 22 40  1  0
 22 41  1  0
 24 42  1  0
 24 43  1  0
 25 44  1  0
M  END
