
     RDKit          3D

 29 30  0  0  0  0  0  0  0  0999 V2000
   70.9996   37.3383   21.7914 C   0  0  0  0  0  0  0  0  0  0  0  0
   70.6327   38.1211   20.6850 O   0  0  0  0  0  0  0  0  0  0  0  0
   71.1164   35.8517   21.4016 C   0  0  1  0  0  0  0  0  0  0  0  0
   69.8230   35.2692   21.3919 O   0  0  0  0  0  0  0  0  0  0  0  0
   71.7781   35.6390   20.0221 C   0  0  1  0  0  0  0  0  0  0  0  0
   72.8511   34.7265   20.1212 O   0  0  0  0  0  0  0  0  0  0  0  0
   70.6421   35.0531   19.2015 C   0  0  0  0  0  0  0  0  0  0  0  0
   69.7530   34.4298   20.2612 C   0  0  2  0  0  0  0  0  0  0  0  0
   68.3517   34.2533   19.8111 N   0  0  0  0  0  0  0  0  0  0  0  0
   67.7633   33.0113   19.7999 C   0  0  0  0  0  0  0  0  0  0  0  0
   68.4363   31.9689   20.0388 O   0  0  0  0  0  0  0  0  0  0  0  0
   66.4362   32.8898   19.5436 N   0  0  0  0  0  0  0  0  0  0  0  0
   65.6688   33.9722   19.2765 C   0  0  0  0  0  0  0  0  0  0  0  0
   64.2791   33.8080   19.0353 N   0  0  0  0  0  0  0  0  0  0  0  0
   66.2476   35.2291   19.2192 C   0  0  0  0  0  0  0  0  0  0  0  0
   67.6059   35.3458   19.4662 C   0  0  0  0  0  0  0  0  0  0  0  0
   69.9816   36.0586   18.5298 F   0  0  0  0  0  0  0  0  0  0  0  0
   71.0615   34.1166   18.2847 F   0  0  0  0  0  0  0  0  0  0  0  0
   70.2686   37.4597   22.6237 H   0  0  0  0  0  0  0  0  0  0  0  0
   71.9856   37.6923   22.1607 H   0  0  0  0  0  0  0  0  0  0  0  0
   71.4425   38.2104   20.1190 H   0  0  0  0  0  0  0  0  0  0  0  0
   71.7176   35.3451   22.1895 H   0  0  0  0  0  0  0  0  0  0  0  0
   72.1370   36.5974   19.5771 H   0  0  0  0  0  0  0  0  0  0  0  0
   72.9487   34.5045   21.0840 H   0  0  0  0  0  0  0  0  0  0  0  0
   70.1872   33.4469   20.5587 H   0  0  0  0  0  0  0  0  0  0  0  0
   63.8247   32.8805   19.1889 H   0  0  0  0  0  0  0  0  0  0  0  0
   63.6919   34.6059   18.7040 H   0  0  0  0  0  0  0  0  0  0  0  0
   65.6571   36.1069   18.9879 H   0  0  0  0  0  0  0  0  0  0  0  0
   68.0499   36.3325   19.4422 H   0  0  0  0  0  0  0  0  0  0  0  0
  2  1  1  0
  3  1  1  0
  4  3  1  0
  5  3  1  0
  5  6  1  0
  7  5  1  0
  8  7  1  0
  8  4  1  0
  8  9  1  0
 10  9  1  0
 11 10  2  0
 12 10  1  0
 13 12  2  0
 14 13  1  0
 15 13  1  0
 16 15  2  0
 16  9  1  0
  7 17  1  0
 18  7  1  0
  1 19  1  0
  1 20  1  0
  2 21  1  0
  3 22  1  1
  5 23  1  6
  6 24  1  0
  8 25  1  1
 14 26  1  0
 14 27  1  0
 15 28  1  0
 16 29  1  0
M  END
