
     RDKit          3D

 29 30  0  0  0  0  0  0  0  0999 V2000
   71.1246   37.6424   21.0854 C   0  0  0  0  0  0  0  0  0  0  0  0
   70.7577   38.4252   19.9790 O   0  0  0  0  0  0  0  0  0  0  0  0
   71.2414   36.1557   20.6955 C   0  0  1  0  0  0  0  0  0  0  0  0
   69.9572   35.5560   20.7542 O   0  0  0  0  0  0  0  0  0  0  0  0
   71.8345   35.9458   19.2848 C   0  0  1  0  0  0  0  0  0  0  0  0
   72.9233   35.0481   19.3322 O   0  0  0  0  0  0  0  0  0  0  0  0
   70.6660   35.3413   18.5257 C   0  0  0  0  0  0  0  0  0  0  0  0
   69.8408   34.7108   19.6317 C   0  0  2  0  0  0  0  0  0  0  0  0
   68.4208   34.5137   19.2547 N   0  0  0  0  0  0  0  0  0  0  0  0
   67.9485   33.2725   18.9008 C   0  0  0  0  0  0  0  0  0  0  0  0
   68.7341   32.2941   18.7522 O   0  0  0  0  0  0  0  0  0  0  0  0
   66.6178   33.0777   18.7189 N   0  0  0  0  0  0  0  0  0  0  0  0
   65.7321   34.0914   18.8603 C   0  0  0  0  0  0  0  0  0  0  0  0
   64.3450   33.8443   18.6841 N   0  0  0  0  0  0  0  0  0  0  0  0
   66.1863   35.3663   19.1546 C   0  0  0  0  0  0  0  0  0  0  0  0
   67.5473   35.5630   19.3239 C   0  0  0  0  0  0  0  0  0  0  0  0
   69.9585   36.3349   17.8849 F   0  0  0  0  0  0  0  0  0  0  0  0
   71.0506   34.4064   17.5920 F   0  0  0  0  0  0  0  0  0  0  0  0
   70.3936   37.7637   21.9177 H   0  0  0  0  0  0  0  0  0  0  0  0
   72.1106   37.9964   21.4547 H   0  0  0  0  0  0  0  0  0  0  0  0
   70.8010   39.3715   20.2734 H   0  0  0  0  0  0  0  0  0  0  0  0
   71.8889   35.6607   21.4536 H   0  0  0  0  0  0  0  0  0  0  0  0
   72.1572   36.9069   18.8185 H   0  0  0  0  0  0  0  0  0  0  0  0
   72.5418   34.1335   19.2722 H   0  0  0  0  0  0  0  0  0  0  0  0
   70.3029   33.7351   19.9102 H   0  0  0  0  0  0  0  0  0  0  0  0
   64.0176   32.9247   18.3133 H   0  0  0  0  0  0  0  0  0  0  0  0
   63.6338   34.5716   18.9215 H   0  0  0  0  0  0  0  0  0  0  0  0
   65.4980   36.1964   19.2530 H   0  0  0  0  0  0  0  0  0  0  0  0
   67.8958   36.5561   19.5756 H   0  0  0  0  0  0  0  0  0  0  0  0
  2  1  1  0
  3  1  1  0
  4  3  1  0
  5  3  1  0
  5  6  1  0
  7  5  1  0
  8  7  1  0
  8  4  1  0
  8  9  1  0
 10  9  1  0
 11 10  2  0
 12 10  1  0
 13 12  2  0
 14 13  1  0
 15 13  1  0
 16 15  2  0
 16  9  1  0
  7 17  1  0
 18  7  1  0
  1 19  1  0
  1 20  1  0
  2 21  1  0
  3 22  1  1
  5 23  1  6
  6 24  1  0
  8 25  1  1
 14 26  1  0
 14 27  1  0
 15 28  1  0
 16 29  1  0
M  END
