
     RDKit          3D

 42 44  0  0  0  0  0  0  0  0999 V2000
   19.4332    0.8178  -11.8938 Cl  0  0  0  0  0  0  0  0  0  0  0  0
   15.9116   -0.2250   -8.0599 C   0  0  0  0  0  0  0  0  0  0  0  0
   16.7121   -1.0624   -7.2983 O   0  0  0  0  0  0  0  0  0  0  0  0
   16.2501   -0.0355   -9.4765 C   0  0  0  0  0  0  0  0  0  0  0  0
   14.8901    0.3169   -7.5576 O   0  0  0  0  0  0  0  0  0  0  0  0
   15.2299   -0.2384  -10.4384 C   0  0  0  0  0  0  0  0  0  0  0  0
   13.9314   -0.5555  -10.0381 O   0  0  0  0  0  0  0  0  0  0  0  0
   15.5167   -0.1322  -11.7970 C   0  0  0  0  0  0  0  0  0  0  0  0
   17.0999    0.2549  -13.5758 O   0  0  0  0  0  0  0  0  0  0  0  0
   16.8131    0.1632  -12.2172 C   0  0  0  0  0  0  0  0  0  0  0  0
   21.0934    0.3338   -9.2765 O   0  0  0  0  0  0  0  0  0  0  0  0
   17.8402    0.3662  -11.2818 C   0  0  0  0  0  0  0  0  0  0  0  0
   16.2573   -5.0373   -7.0437 O   0  0  0  0  0  0  0  0  0  0  0  0
   17.5924    0.2493   -9.8938 C   0  0  0  0  0  0  0  0  0  0  0  0
   18.7379    0.5224   -8.9030 C   0  0  0  0  0  0  0  0  0  0  0  0
   20.0064   -0.2884   -9.1418 C   0  0  0  0  0  0  0  0  0  0  0  0
   20.0628   -1.7647   -9.1839 C   0  0  0  0  0  0  0  0  0  0  0  0
   18.9845   -2.5371   -9.0933 C   0  0  0  0  0  0  0  0  0  0  0  0
   19.0820   -4.0013   -9.0630 C   0  0  0  0  0  0  0  0  0  0  0  0
   18.0946   -4.7596   -8.5763 C   0  0  0  0  0  0  0  0  0  0  0  0
   16.8427   -4.1709   -7.9871 C   0  0  2  0  0  0  0  0  0  0  0  0
   16.8994   -3.8918   -6.5280 C   0  0  1  0  0  0  0  0  0  0  0  0
   15.8749   -2.8899   -5.9788 C   0  0  0  0  0  0  0  0  0  0  0  0
   16.3885   -1.4434   -5.9758 C   0  0  1  0  0  0  0  0  0  0  0  0
   17.6224   -1.2303   -5.1103 C   0  0  0  0  0  0  0  0  0  0  0  0
   13.4393   -0.0096   -9.3404 H   0  0  0  0  0  0  0  0  0  0  0  0
   14.7345   -0.2886  -12.5294 H   0  0  0  0  0  0  0  0  0  0  0  0
   16.3886    0.1028  -14.2815 H   0  0  0  0  0  0  0  0  0  0  0  0
   18.4490    0.3994   -7.8459 H   0  0  0  0  0  0  0  0  0  0  0  0
   18.9875    1.6021   -8.9931 H   0  0  0  0  0  0  0  0  0  0  0  0
   21.0386   -2.2294   -9.2701 H   0  0  0  0  0  0  0  0  0  0  0  0
   18.0117   -2.1003   -9.0210 H   0  0  0  0  0  0  0  0  0  0  0  0
   19.9915   -4.4826   -9.4026 H   0  0  0  0  0  0  0  0  0  0  0  0
   18.2237   -5.8350   -8.5568 H   0  0  0  0  0  0  0  0  0  0  0  0
   16.0840   -3.6676   -8.6239 H   0  0  0  0  0  0  0  0  0  0  0  0
   17.8101   -4.1593   -5.9504 H   0  0  0  0  0  0  0  0  0  0  0  0
   14.9303   -2.9287   -6.5668 H   0  0  0  0  0  0  0  0  0  0  0  0
   15.6199   -3.1873   -4.9390 H   0  0  0  0  0  0  0  0  0  0  0  0
   15.5878   -0.7989   -5.5495 H   0  0  0  0  0  0  0  0  0  0  0  0
   18.0589   -0.2306   -5.3202 H   0  0  0  0  0  0  0  0  0  0  0  0
   18.3930   -2.0005   -5.3269 H   0  0  0  0  0  0  0  0  0  0  0  0
   17.3506   -1.2787   -4.0344 H   0  0  0  0  0  0  0  0  0  0  0  0
  3  2  1  0
  4  2  1  0
  5  2  2  0
  6  4  2  0
  7  6  1  0
  8  6  1  0
 10  8  2  0
 10  9  1  0
 12 10  1  0
 12  1  1  0
 14  4  1  0
 14 12  2  0
 15 14  1  0
 16 15  1  0
 16 11  2  0
 17 16  1  0
 18 17  2  3
 19 18  1  0
 20 19  2  3
 21 13  1  0
 21 20  1  0
 22 13  1  0
 22 21  1  0
 22 23  1  0
 24 23  1  0
 24  3  1  0
 24 25  1  0
  7 26  1  0
  8 27  1  0
  9 28  1  0
 15 29  1  0
 15 30  1  0
 17 31  1  0
 18 32  1  0
 19 33  1  0
 20 34  1  0
 21 35  1  6
 22 36  1  1
 23 37  1  0
 23 38  1  0
 24 39  1  1
 25 40  1  0
 25 41  1  0
 25 42  1  0
M  END
