
     RDKit          3D

 42 42  0  0  0  0  0  0  0  0999 V2000
   54.4037    8.2867   27.9377 P   0  0  0  0  0  0  0  0  0  0  0  0
   61.2419    9.4379   26.8639 P   0  0  0  0  0  0  0  0  0  0  0  0
   56.7633   12.2140   27.9979 C   0  0  0  0  0  0  0  0  0  0  0  0
   55.8993    9.0738   28.1906 O   0  0  0  0  0  0  0  0  0  0  0  0
   55.7057   11.4512   28.3586 C   0  0  0  0  0  0  0  0  0  0  0  0
   57.3419    8.9434   30.6085 O   0  0  0  0  0  0  0  0  0  0  0  0
   55.8522   10.1505   29.1195 C   0  0  2  0  0  0  0  0  0  0  0  0
   59.6386   10.4394   29.7003 O   0  0  0  0  0  0  0  0  0  0  0  0
   57.1823   10.1673   29.9411 C   0  0  2  0  0  0  0  0  0  0  0  0
   55.6099   13.5468   26.3997 O   0  0  0  0  0  0  0  0  0  0  0  0
   58.3923   10.4598   28.9966 C   0  0  1  0  0  0  0  0  0  0  0  0
   57.3644   14.5492   27.4618 O   0  0  0  0  0  0  0  0  0  0  0  0
   58.1849   11.8926   28.4399 C   0  0  0  0  0  0  0  0  0  0  0  0
   53.3763    9.2219   27.3374 O   0  0  0  0  0  0  0  0  0  0  0  0
   56.5406   13.4620   27.2420 C   0  0  0  0  0  0  0  0  0  0  0  0
   53.8295    7.6208   29.3770 O   0  0  0  0  0  0  0  0  0  0  0  0
   60.5764    9.3479   29.5372 C   0  0  2  0  0  0  0  0  0  0  0  0
   54.7292    7.0486   26.8423 O   0  0  0  0  0  0  0  0  0  0  0  0
   59.9987    7.8940   29.5331 C   0  0  0  0  0  0  0  0  0  0  0  0
   61.2349    8.6867   31.7301 O   0  0  0  0  0  0  0  0  0  0  0  0
   61.4515    9.4734   30.7688 C   0  0  0  0  0  0  0  0  0  0  0  0
   62.4127   10.4662   30.9151 O   0  0  0  0  0  0  0  0  0  0  0  0
   62.5246    8.9969   26.1850 O   0  0  0  0  0  0  0  0  0  0  0  0
   60.8684   10.9769   26.3145 O   0  0  0  0  0  0  0  0  0  0  0  0
   60.0252    8.3599   26.4513 O   0  0  0  0  0  0  0  0  0  0  0  0
   61.5695    9.5514   28.5291 O   0  0  0  0  0  0  0  0  0  0  0  0
   59.0569    7.6766   28.5638 F   0  0  0  0  0  0  0  0  0  0  0  0
   61.0149    6.9732   29.3468 F   0  0  0  0  0  0  0  0  0  0  0  0
   54.7066   11.7348   28.0494 H   0  0  0  0  0  0  0  0  0  0  0  0
   56.6764    8.9278   31.3452 H   0  0  0  0  0  0  0  0  0  0  0  0
   55.0041   10.0533   29.8352 H   0  0  0  0  0  0  0  0  0  0  0  0
   57.1274   10.9822   30.7028 H   0  0  0  0  0  0  0  0  0  0  0  0
   58.3811    9.7804   28.1309 H   0  0  0  0  0  0  0  0  0  0  0  0
   57.2304   15.4153   26.9536 H   0  0  0  0  0  0  0  0  0  0  0  0
   58.4689   12.6276   29.2248 H   0  0  0  0  0  0  0  0  0  0  0  0
   58.8658   12.0491   27.5805 H   0  0  0  0  0  0  0  0  0  0  0  0
   53.0302    7.0992   29.1126 H   0  0  0  0  0  0  0  0  0  0  0  0
   55.7108    7.0777   26.7139 H   0  0  0  0  0  0  0  0  0  0  0  0
   59.5174    7.6757   30.5093 H   0  0  0  0  0  0  0  0  0  0  0  0
   62.3896   11.3020   30.3433 H   0  0  0  0  0  0  0  0  0  0  0  0
   60.6951   10.8680   25.3455 H   0  0  0  0  0  0  0  0  0  0  0  0
   59.6994    7.9988   27.3139 H   0  0  0  0  0  0  0  0  0  0  0  0
  4  1  1  0
  5  3  2  0
  7  4  1  0
  7  5  1  0
  9  7  1  0
  9  6  1  0
 11  9  1  0
 11  8  1  0
 13 11  1  0
 13  3  1  0
 14  1  2  0
 15 10  2  0
 15 12  1  0
 15  3  1  0
 16  1  1  0
 17  8  1  1
 18  1  1  0
 19 17  1  0
 21 20  2  0
 21 17  1  0
 22 21  1  0
 23  2  2  0
 24  2  1  0
 25  2  1  0
 26  2  1  0
 26 17  1  0
 19 27  1  0
 28 19  1  0
  5 29  1  0
  6 30  1  0
  7 31  1  1
  9 32  1  1
 11 33  1  6
 12 34  1  0
 13 35  1  0
 13 36  1  0
 16 37  1  0
 18 38  1  0
 19 39  1  0
 22 40  1  0
 24 41  1  0
 25 42  1  0
M  END
