
     RDKit          3D

 42 42  0  0  0  0  0  0  0  0999 V2000
   54.0840    7.8421   28.3419 P   0  0  0  0  0  0  0  0  0  0  0  0
   60.8390    9.5518   27.2498 P   0  0  0  0  0  0  0  0  0  0  0  0
   56.3970   11.7968   28.4210 C   0  0  0  0  0  0  0  0  0  0  0  0
   55.5731    8.6442   28.5861 O   0  0  0  0  0  0  0  0  0  0  0  0
   55.3532   11.0169   28.7853 C   0  0  0  0  0  0  0  0  0  0  0  0
   57.0467    8.5024   30.9846 O   0  0  0  0  0  0  0  0  0  0  0  0
   55.5244    9.7091   29.5285 C   0  0  2  0  0  0  0  0  0  0  0  0
   59.3140   10.0369   30.0668 O   0  0  0  0  0  0  0  0  0  0  0  0
   56.8643    9.7321   30.3341 C   0  0  2  0  0  0  0  0  0  0  0  0
   55.2082   13.1345   26.8532 O   0  0  0  0  0  0  0  0  0  0  0  0
   58.0590   10.0505   29.3786 C   0  0  1  0  0  0  0  0  0  0  0  0
   56.9634   14.1453   27.9061 O   0  0  0  0  0  0  0  0  0  0  0  0
   57.8277   11.4873   28.8419 C   0  0  0  0  0  0  0  0  0  0  0  0
   53.0382    8.7720   27.7654 O   0  0  0  0  0  0  0  0  0  0  0  0
   56.1501   13.0509   27.6831 C   0  0  0  0  0  0  0  0  0  0  0  0
   53.5356    7.1521   29.7798 O   0  0  0  0  0  0  0  0  0  0  0  0
   60.2628    8.9589   29.8792 C   0  0  2  0  0  0  0  0  0  0  0  0
   54.4108    6.6213   27.2277 O   0  0  0  0  0  0  0  0  0  0  0  0
   59.7024    7.4982   29.8644 C   0  0  0  0  0  0  0  0  0  0  0  0
   62.1722    9.8157   31.0190 O   0  0  0  0  0  0  0  0  0  0  0  0
   61.1514    9.0802   31.1015 C   0  0  0  0  0  0  0  0  0  0  0  0
   60.9381    8.3531   32.2662 O   0  0  0  0  0  0  0  0  0  0  0  0
   61.9650    9.0281   26.3786 O   0  0  0  0  0  0  0  0  0  0  0  0
   60.8039   11.2212   27.1018 O   0  0  0  0  0  0  0  0  0  0  0  0
   59.3970    8.8878   26.7093 O   0  0  0  0  0  0  0  0  0  0  0  0
   61.2409    9.1865   28.8617 O   0  0  0  0  0  0  0  0  0  0  0  0
   58.7515    7.2811   28.9041 F   0  0  0  0  0  0  0  0  0  0  0  0
   60.7273    6.5921   29.6547 F   0  0  0  0  0  0  0  0  0  0  0  0
   54.3470   11.2921   28.4917 H   0  0  0  0  0  0  0  0  0  0  0  0
   56.3906    8.4699   31.7290 H   0  0  0  0  0  0  0  0  0  0  0  0
   54.6864    9.5931   30.2532 H   0  0  0  0  0  0  0  0  0  0  0  0
   56.8090   10.5372   31.1062 H   0  0  0  0  0  0  0  0  0  0  0  0
   58.0454    9.3815   28.5050 H   0  0  0  0  0  0  0  0  0  0  0  0
   56.8129   15.0157   27.4101 H   0  0  0  0  0  0  0  0  0  0  0  0
   58.1125   12.2163   29.6322 H   0  0  0  0  0  0  0  0  0  0  0  0
   58.4960   11.6623   27.9763 H   0  0  0  0  0  0  0  0  0  0  0  0
   52.7393    6.6241   29.5189 H   0  0  0  0  0  0  0  0  0  0  0  0
   55.3118    6.2911   27.4731 H   0  0  0  0  0  0  0  0  0  0  0  0
   59.2358    7.2624   30.8437 H   0  0  0  0  0  0  0  0  0  0  0  0
   60.9731    7.3407   32.2621 H   0  0  0  0  0  0  0  0  0  0  0  0
   60.5773   11.3896   26.1526 H   0  0  0  0  0  0  0  0  0  0  0  0
   58.7538    9.0367   27.4473 H   0  0  0  0  0  0  0  0  0  0  0  0
  4  1  1  0
  5  3  2  0
  7  4  1  0
  7  5  1  0
  9  7  1  0
  9  6  1  0
 11  9  1  0
 11  8  1  0
 13 11  1  0
 13  3  1  0
 14  1  2  0
 15 10  2  0
 15 12  1  0
 15  3  1  0
 16  1  1  0
 17  8  1  1
 18  1  1  0
 19 17  1  0
 21 20  2  0
 21 17  1  0
 22 21  1  0
 23  2  2  0
 24  2  1  0
 25  2  1  0
 26  2  1  0
 26 17  1  0
 19 27  1  0
 28 19  1  0
  5 29  1  0
  6 30  1  0
  7 31  1  1
  9 32  1  1
 11 33  1  6
 12 34  1  0
 13 35  1  0
 13 36  1  0
 16 37  1  0
 18 38  1  0
 19 39  1  0
 22 40  1  0
 24 41  1  0
 25 42  1  0
M  END
