
     RDKit          3D

 34 36  0  0  0  0  0  0  0  0999 V2000
   41.0173   -1.8402   33.3954 C   0  0  0  0  0  0  0  0  0  0  0  0
   40.6056   -0.6684   32.7712 O   0  0  0  0  0  0  0  0  0  0  0  0
   40.5985   -2.0530   34.7038 C   0  0  0  0  0  0  0  0  0  0  0  0
   40.9249   -3.2259   35.3688 C   0  0  0  0  0  0  0  0  0  0  0  0
   41.6759   -4.2141   34.7354 C   0  0  0  0  0  0  0  0  0  0  0  0
   42.1345   -4.0030   33.4234 C   0  0  0  0  0  0  0  0  0  0  0  0
   41.8136   -2.8124   32.7423 C   0  0  0  0  0  0  0  0  0  0  0  0
   43.7275   -2.4165   27.1570 C   0  0  0  0  0  0  0  0  0  0  0  0
   44.9868   -2.3744   25.0775 N   0  0  0  0  0  0  0  0  0  0  0  0
   44.3779   -1.2672   27.6938 C   0  0  0  0  0  0  0  0  0  0  0  0
   42.9589   -3.5514   25.0534 N   0  0  0  0  0  0  0  0  0  0  0  0
   44.2331   -0.9263   29.0308 C   0  0  0  0  0  0  0  0  0  0  0  0
   43.1759   -1.5841   31.0780 N   0  0  0  0  0  0  0  0  0  0  0  0
   43.4103   -1.7192   29.7944 C   0  0  0  0  0  0  0  0  0  0  0  0
   42.0248   -3.3738   30.3027 N   0  0  0  0  0  0  0  0  0  0  0  0
   42.7439   -2.7940   29.3187 C   0  0  0  0  0  0  0  0  0  0  0  0
   42.8791   -3.1901   27.9990 C   0  0  0  0  0  0  0  0  0  0  0  0
   43.9347   -2.7642   25.7358 C   0  0  0  0  0  0  0  0  0  0  0  0
   42.3135   -2.5815   31.3766 C   0  0  0  0  0  0  0  0  0  0  0  0
   41.9949   -5.4696   35.4919 C   0  0  0  0  0  0  0  0  0  0  0  0
   39.5478   -0.7490   35.6166 Br  0  0  0  0  0  0  0  0  0  0  0  0
   40.5826   -3.3743   36.3862 H   0  0  0  0  0  0  0  0  0  0  0  0
   42.7395   -4.7610   32.9407 H   0  0  0  0  0  0  0  0  0  0  0  0
   45.7529   -1.7947   25.4735 H   0  0  0  0  0  0  0  0  0  0  0  0
   45.1002   -2.6360   24.0724 H   0  0  0  0  0  0  0  0  0  0  0  0
   44.9903   -0.6112   27.0972 H   0  0  0  0  0  0  0  0  0  0  0  0
   43.1684   -4.5471   24.8175 H   0  0  0  0  0  0  0  0  0  0  0  0
   42.1501   -3.1249   24.5536 H   0  0  0  0  0  0  0  0  0  0  0  0
   44.7402   -0.0662   29.4500 H   0  0  0  0  0  0  0  0  0  0  0  0
   43.7108   -0.9159   31.6651 H   0  0  0  0  0  0  0  0  0  0  0  0
   42.3358   -4.0637   27.6797 H   0  0  0  0  0  0  0  0  0  0  0  0
   43.0422   -5.7914   35.3089 H   0  0  0  0  0  0  0  0  0  0  0  0
   41.3195   -6.2912   35.1713 H   0  0  0  0  0  0  0  0  0  0  0  0
   41.8613   -5.2915   36.5795 H   0  0  0  0  0  0  0  0  0  0  0  0
  2  1  1  0
  3  1  2  0
  4  3  1  0
  5  4  2  0
  6  5  1  0
  7  6  2  0
  7  1  1  0
 10  8  2  0
 12 10  1  0
 14 13  1  0
 14 12  2  0
 16 15  1  0
 16 14  1  0
 17 16  2  0
 17  8  1  0
 18 11  1  0
 18  9  2  0
 18  8  1  0
 19 15  2  0
 19 13  1  0
 19  7  1  0
 20  5  1  0
 21  3  1  0
  4 22  1  0
  6 23  1  0
  9 24  1  0
  9 25  1  0
 10 26  1  0
 11 27  1  0
 11 28  1  0
 12 29  1  0
 13 30  1  0
 17 31  1  0
 20 32  1  0
 20 33  1  0
 20 34  1  0
M  CHG  2   2  -1   9   1
M  END
