
     RDKit          3D

 44 46  0  0  0  0  0  0  0  0999 V2000
   55.3137    2.0129   48.6052 P   0  0  1  0  0  0  0  0  0  0  0  0
   54.4647    2.6829   45.8380 P   0  0  0  0  0  0  0  0  0  0  0  0
   55.5795   -0.2404   49.7779 C   0  0  0  0  0  0  0  0  0  0  0  0
   54.6568    0.5107   49.0227 O   0  0  0  0  0  0  0  0  0  0  0  0
   54.9460   -0.4781   51.1448 C   0  0  1  0  0  0  0  0  0  0  0  0
   53.7161   -1.1521   50.9863 O   0  0  0  0  0  0  0  0  0  0  0  0
   55.8121   -1.2930   52.0899 C   0  0  1  0  0  0  0  0  0  0  0  0
   56.7313   -0.4806   52.7736 O   0  0  0  0  0  0  0  0  0  0  0  0
   54.7651   -1.8889   53.0039 C   0  0  1  0  0  0  0  0  0  0  0  0
   54.3817   -0.9758   54.0085 O   0  0  0  0  0  0  0  0  0  0  0  0
   53.5989   -2.0888   52.0365 C   0  0  2  0  0  0  0  0  0  0  0  0
   54.4532   -7.0678   52.9938 N   0  0  0  0  0  0  0  0  0  0  0  0
   54.2939    3.0824   48.9163 O   0  0  0  0  0  0  0  0  0  0  0  0
   54.8898    2.6448   44.3900 O   0  0  0  0  0  0  0  0  0  0  0  0
   54.6602   -5.9845   53.8055 C   0  0  0  0  0  0  0  0  0  0  0  0
   56.6889    2.3109   49.5146 O   0  0  0  0  0  0  0  0  0  0  0  0
   54.1317    4.2567   46.3000 O   0  0  0  0  0  0  0  0  0  0  0  0
   55.7940    2.0477   46.8632 C   0  0  0  0  0  0  0  0  0  0  0  0
   54.3934   -4.7203   53.3672 N   0  0  0  0  0  0  0  0  0  0  0  0
   53.0772    1.7727   46.0537 O   0  0  0  0  0  0  0  0  0  0  0  0
   53.9252   -4.5817   52.1045 C   0  0  0  0  0  0  0  0  0  0  0  0
   53.7153   -5.6320   51.2748 C   0  0  0  0  0  0  0  0  0  0  0  0
   53.9806   -6.9234   51.7236 C   0  0  0  0  0  0  0  0  0  0  0  0
   53.7727   -8.0686   50.9076 N   0  0  0  0  0  0  0  0  0  0  0  0
   53.2427   -5.2078   50.0838 N   0  0  0  0  0  0  0  0  0  0  0  0
   53.1817   -3.8586   50.2505 C   0  0  0  0  0  0  0  0  0  0  0  0
   53.5885   -3.4472   51.4826 N   0  0  0  0  0  0  0  0  0  0  0  0
   56.5429    0.2921   49.9439 H   0  0  0  0  0  0  0  0  0  0  0  0
   55.7753   -1.2119   49.2756 H   0  0  0  0  0  0  0  0  0  0  0  0
   54.7370    0.5145   51.6077 H   0  0  0  0  0  0  0  0  0  0  0  0
   56.3397   -2.1049   51.5344 H   0  0  0  0  0  0  0  0  0  0  0  0
   57.5913   -0.9762   52.7777 H   0  0  0  0  0  0  0  0  0  0  0  0
   55.1088   -2.8516   53.4504 H   0  0  0  0  0  0  0  0  0  0  0  0
   55.0263   -1.0882   54.7550 H   0  0  0  0  0  0  0  0  0  0  0  0
   52.6331   -1.9137   52.5605 H   0  0  0  0  0  0  0  0  0  0  0  0
   55.0363   -6.1332   54.8083 H   0  0  0  0  0  0  0  0  0  0  0  0
   57.4527    2.0288   48.9510 H   0  0  0  0  0  0  0  0  0  0  0  0
   54.9769    4.7511   46.1504 H   0  0  0  0  0  0  0  0  0  0  0  0
   56.0599    1.0243   46.5285 H   0  0  0  0  0  0  0  0  0  0  0  0
   56.6830    2.7010   46.7454 H   0  0  0  0  0  0  0  0  0  0  0  0
   52.8783    1.4022   45.1575 H   0  0  0  0  0  0  0  0  0  0  0  0
   53.2462   -8.8903   51.2788 H   0  0  0  0  0  0  0  0  0  0  0  0
   54.1410   -8.1054   49.9311 H   0  0  0  0  0  0  0  0  0  0  0  0
   52.8316   -3.1886   49.4794 H   0  0  0  0  0  0  0  0  0  0  0  0
  1  4  1  1
  4  3  1  0
  5  3  1  0
  6  5  1  0
  7  5  1  0
  7  8  1  0
  9  7  1  0
  9 10  1  0
 11  9  1  0
 11  6  1  0
 13  1  2  0
 14  2  2  0
 15 12  2  0
 16  1  1  0
 17  2  1  0
 18  2  1  0
 18  1  1  0
 19 15  1  0
 20  2  1  0
 21 19  2  0
 22 21  1  0
 23 12  1  0
 23 22  2  0
 24 23  1  0
 25 22  1  0
 26 25  2  0
 27 26  1  0
 27 21  1  0
 11 27  1  0
  3 28  1  0
  3 29  1  0
  5 30  1  1
  7 31  1  6
  8 32  1  0
  9 33  1  1
 10 34  1  0
 11 35  1  1
 15 36  1  0
 16 37  1  0
 17 38  1  0
 18 39  1  0
 18 40  1  0
 20 41  1  0
 24 42  1  0
 24 43  1  0
 26 44  1  0
M  END
