
     RDKit          3D

 44 46  0  0  0  0  0  0  0  0999 V2000
  -22.3125   50.6659   46.3755 P   0  0  1  0  0  0  0  0  0  0  0  0
  -20.7136   53.1719   46.6491 P   0  0  0  0  0  0  0  0  0  0  0  0
  -21.5363   49.3169   48.4157 C   0  0  0  0  0  0  0  0  0  0  0  0
  -21.1509   49.6662   47.1028 O   0  0  0  0  0  0  0  0  0  0  0  0
  -20.9900   47.9191   48.6997 C   0  0  1  0  0  0  0  0  0  0  0  0
  -19.5827   47.9236   48.5888 O   0  0  0  0  0  0  0  0  0  0  0  0
  -21.3447   47.4013   50.0828 C   0  0  1  0  0  0  0  0  0  0  0  0
  -22.6244   46.8210   50.1045 O   0  0  0  0  0  0  0  0  0  0  0  0
  -20.2381   46.3946   50.3083 C   0  0  1  0  0  0  0  0  0  0  0  0
  -20.5315   45.1661   49.6848 O   0  0  0  0  0  0  0  0  0  0  0  0
  -19.0698   47.0534   49.5772 C   0  0  2  0  0  0  0  0  0  0  0  0
  -15.5172   46.7540   53.2880 N   0  0  0  0  0  0  0  0  0  0  0  0
  -22.0682   50.6954   44.8856 O   0  0  0  0  0  0  0  0  0  0  0  0
  -20.5587   54.4015   47.5100 O   0  0  0  0  0  0  0  0  0  0  0  0
  -16.1154   45.7454   52.5810 C   0  0  0  0  0  0  0  0  0  0  0  0
  -23.8493   50.0509   46.6418 O   0  0  0  0  0  0  0  0  0  0  0  0
  -20.7310   53.6134   45.0343 O   0  0  0  0  0  0  0  0  0  0  0  0
  -22.2538   52.3384   47.0658 C   0  0  0  0  0  0  0  0  0  0  0  0
  -17.0498   46.0188   51.6250 N   0  0  0  0  0  0  0  0  0  0  0  0
  -19.4242   52.1358   46.8978 O   0  0  0  0  0  0  0  0  0  0  0  0
  -17.3529   47.3186   51.3980 C   0  0  0  0  0  0  0  0  0  0  0  0
  -16.7756   48.3398   52.0762 C   0  0  0  0  0  0  0  0  0  0  0  0
  -15.8306   48.0611   53.0636 C   0  0  0  0  0  0  0  0  0  0  0  0
  -15.2132   49.0816   53.8378 N   0  0  0  0  0  0  0  0  0  0  0  0
  -17.2590   49.5244   51.6451 N   0  0  0  0  0  0  0  0  0  0  0  0
  -18.1482   49.1550   50.6827 C   0  0  0  0  0  0  0  0  0  0  0  0
  -18.2223   47.8079   50.5065 N   0  0  0  0  0  0  0  0  0  0  0  0
  -22.6354   49.2789   48.5768 H   0  0  0  0  0  0  0  0  0  0  0  0
  -21.1016   50.0497   49.1288 H   0  0  0  0  0  0  0  0  0  0  0  0
  -21.3977   47.2220   47.9311 H   0  0  0  0  0  0  0  0  0  0  0  0
  -21.2723   48.2212   50.8367 H   0  0  0  0  0  0  0  0  0  0  0  0
  -22.8230   46.6211   51.0562 H   0  0  0  0  0  0  0  0  0  0  0  0
  -20.0250   46.2510   51.3940 H   0  0  0  0  0  0  0  0  0  0  0  0
  -21.0705   44.6409   50.3320 H   0  0  0  0  0  0  0  0  0  0  0  0
  -18.4465   46.2801   49.0750 H   0  0  0  0  0  0  0  0  0  0  0  0
  -15.8464   44.7183   52.7856 H   0  0  0  0  0  0  0  0  0  0  0  0
  -24.2454   50.6103   47.3568 H   0  0  0  0  0  0  0  0  0  0  0  0
  -21.5132   54.2142   44.9423 H   0  0  0  0  0  0  0  0  0  0  0  0
  -22.3482   52.2754   48.1694 H   0  0  0  0  0  0  0  0  0  0  0  0
  -23.1032   52.9313   46.6684 H   0  0  0  0  0  0  0  0  0  0  0  0
  -19.0383   52.4131   47.7671 H   0  0  0  0  0  0  0  0  0  0  0  0
  -15.6847   49.4515   54.6929 H   0  0  0  0  0  0  0  0  0  0  0  0
  -14.2847   49.4736   53.5647 H   0  0  0  0  0  0  0  0  0  0  0  0
  -18.7333   49.8685   50.1188 H   0  0  0  0  0  0  0  0  0  0  0  0
  1  4  1  1
  4  3  1  0
  5  3  1  0
  6  5  1  0
  7  5  1  0
  7  8  1  0
  9  7  1  0
  9 10  1  0
 11  6  1  0
 11  9  1  0
 13  1  2  0
 14  2  2  0
 15 12  2  0
 16  1  1  0
 17  2  1  0
 18  1  1  0
 18  2  1  0
 19 15  1  0
 20  2  1  0
 21 19  2  0
 22 21  1  0
 23 22  2  0
 23 12  1  0
 24 23  1  0
 25 22  1  0
 26 25  2  0
 27 26  1  0
 27 21  1  0
 11 27  1  0
  3 28  1  0
  3 29  1  0
  5 30  1  6
  7 31  1  1
  8 32  1  0
  9 33  1  1
 10 34  1  0
 11 35  1  6
 15 36  1  0
 16 37  1  0
 17 38  1  0
 18 39  1  0
 18 40  1  0
 20 41  1  0
 24 42  1  0
 24 43  1  0
 26 44  1  0
M  END
