
     RDKit          3D

 33 34  0  0  0  0  0  0  0  0999 V2000
  -16.6229   -3.2262  -30.0327 C   0  0  0  0  0  0  0  0  0  0  0  0
  -15.0334   -2.2270  -33.7993 O   0  0  0  0  0  0  0  0  0  0  0  0
  -17.2488   -3.6262  -28.6874 C   0  0  0  0  0  0  0  0  0  0  0  0
  -13.9753   -7.6150  -26.1585 O   0  0  0  0  0  0  0  0  0  0  0  0
  -18.7177   -4.0519  -28.9514 C   0  0  0  0  0  0  0  0  0  0  0  0
  -16.4020   -4.7355  -28.0499 C   0  0  0  0  0  0  0  0  0  0  0  0
  -17.3076   -2.4581  -27.6795 C   0  0  0  0  0  0  0  0  0  0  0  0
  -15.2953   -2.7560  -30.1516 C   0  0  0  0  0  0  0  0  0  0  0  0
  -14.7677   -2.4249  -31.4009 C   0  0  0  0  0  0  0  0  0  0  0  0
  -15.5464   -2.5595  -32.5521 C   0  0  0  0  0  0  0  0  0  0  0  0
  -16.8499   -3.0372  -32.4543 C   0  0  0  0  0  0  0  0  0  0  0  0
  -17.3779   -3.3839  -31.2132 C   0  0  0  0  0  0  0  0  0  0  0  0
  -14.9953   -4.6976  -28.1764 C   0  0  0  0  0  0  0  0  0  0  0  0
  -14.1904   -5.6581  -27.5622 C   0  0  0  0  0  0  0  0  0  0  0  0
  -14.7697   -6.6645  -26.7882 C   0  0  0  0  0  0  0  0  0  0  0  0
  -16.1565   -6.7123  -26.6402 C   0  0  0  0  0  0  0  0  0  0  0  0
  -16.9673   -5.7550  -27.2544 C   0  0  0  0  0  0  0  0  0  0  0  0
  -14.8232   -2.9360  -34.4922 H   0  0  0  0  0  0  0  0  0  0  0  0
  -13.6031   -8.4126  -26.6609 H   0  0  0  0  0  0  0  0  0  0  0  0
  -19.2701   -4.2554  -28.0110 H   0  0  0  0  0  0  0  0  0  0  0  0
  -18.7470   -4.9720  -29.5753 H   0  0  0  0  0  0  0  0  0  0  0  0
  -19.2763   -3.2646  -29.5028 H   0  0  0  0  0  0  0  0  0  0  0  0
  -17.3286   -2.8374  -26.6346 H   0  0  0  0  0  0  0  0  0  0  0  0
  -16.4158   -1.8027  -27.7885 H   0  0  0  0  0  0  0  0  0  0  0  0
  -18.1987   -1.8165  -27.8487 H   0  0  0  0  0  0  0  0  0  0  0  0
  -14.6507   -2.6351  -29.2941 H   0  0  0  0  0  0  0  0  0  0  0  0
  -13.7505   -2.0609  -31.4719 H   0  0  0  0  0  0  0  0  0  0  0  0
  -17.4510   -3.1585  -33.3467 H   0  0  0  0  0  0  0  0  0  0  0  0
  -18.3774   -3.7955  -31.1839 H   0  0  0  0  0  0  0  0  0  0  0  0
  -14.5145   -3.9144  -28.7482 H   0  0  0  0  0  0  0  0  0  0  0  0
  -13.1151   -5.6084  -27.6777 H   0  0  0  0  0  0  0  0  0  0  0  0
  -16.6079   -7.4884  -26.0350 H   0  0  0  0  0  0  0  0  0  0  0  0
  -18.0317   -5.8240  -27.0862 H   0  0  0  0  0  0  0  0  0  0  0  0
  3  1  1  0
  3  5  1  0
  6  3  1  0
  7  3  1  0
  8  1  2  0
  9  8  1  0
 10  2  1  0
 10  9  2  0
 11 10  1  0
 12 11  2  0
 12  1  1  0
 13  6  2  0
 14 13  1  0
 15 14  2  0
 15  4  1  0
 16 15  1  0
 17 16  2  0
 17  6  1  0
  2 18  1  0
  4 19  1  0
  5 20  1  0
  5 21  1  0
  5 22  1  0
  7 23  1  0
  7 24  1  0
  7 25  1  0
  8 26  1  0
  9 27  1  0
 11 28  1  0
 12 29  1  0
 13 30  1  0
 14 31  1  0
 16 32  1  0
 17 33  1  0
M  END
