
     RDKit          3D

 33 34  0  0  0  0  0  0  0  0999 V2000
  -15.5567   -2.7808  -27.7898 C   0  0  0  0  0  0  0  0  0  0  0  0
  -14.3149   -2.0576  -31.7454 O   0  0  0  0  0  0  0  0  0  0  0  0
  -15.9624   -3.0885  -26.3399 C   0  0  0  0  0  0  0  0  0  0  0  0
  -17.2524   -8.6684  -25.8697 O   0  0  0  0  0  0  0  0  0  0  0  0
  -17.1021   -2.1117  -25.9451 C   0  0  0  0  0  0  0  0  0  0  0  0
  -16.3665   -4.5648  -26.2342 C   0  0  0  0  0  0  0  0  0  0  0  0
  -14.8174   -2.8534  -25.3312 C   0  0  0  0  0  0  0  0  0  0  0  0
  -15.9273   -1.5893  -28.4537 C   0  0  0  0  0  0  0  0  0  0  0  0
  -15.5152   -1.3491  -29.7657 C   0  0  0  0  0  0  0  0  0  0  0  0
  -14.7252   -2.2839  -30.4380 C   0  0  0  0  0  0  0  0  0  0  0  0
  -14.3374   -3.4544  -29.7926 C   0  0  0  0  0  0  0  0  0  0  0  0
  -14.7320   -3.6939  -28.4787 C   0  0  0  0  0  0  0  0  0  0  0  0
  -15.7214   -5.5233  -27.0475 C   0  0  0  0  0  0  0  0  0  0  0  0
  -16.0231   -6.8814  -26.9381 C   0  0  0  0  0  0  0  0  0  0  0  0
  -16.9582   -7.3164  -25.9980 C   0  0  0  0  0  0  0  0  0  0  0  0
  -17.5973   -6.3871  -25.1762 C   0  0  0  0  0  0  0  0  0  0  0  0
  -17.3011   -5.0262  -25.2827 C   0  0  0  0  0  0  0  0  0  0  0  0
  -13.4883   -1.5097  -31.9543 H   0  0  0  0  0  0  0  0  0  0  0  0
  -17.0374   -9.3306  -26.6062 H   0  0  0  0  0  0  0  0  0  0  0  0
  -17.0186   -1.1374  -26.4692 H   0  0  0  0  0  0  0  0  0  0  0  0
  -17.0826   -1.9178  -24.8502 H   0  0  0  0  0  0  0  0  0  0  0  0
  -18.1016   -2.5350  -26.1848 H   0  0  0  0  0  0  0  0  0  0  0  0
  -14.4472   -1.8066  -25.3893 H   0  0  0  0  0  0  0  0  0  0  0  0
  -15.1686   -3.0357  -24.2920 H   0  0  0  0  0  0  0  0  0  0  0  0
  -13.9678   -3.5471  -25.5081 H   0  0  0  0  0  0  0  0  0  0  0  0
  -16.5351   -0.8337  -27.9796 H   0  0  0  0  0  0  0  0  0  0  0  0
  -15.8136   -0.4332  -30.2603 H   0  0  0  0  0  0  0  0  0  0  0  0
  -13.7111   -4.1737  -30.3051 H   0  0  0  0  0  0  0  0  0  0  0  0
  -14.3715   -4.5919  -27.9962 H   0  0  0  0  0  0  0  0  0  0  0  0
  -14.9725   -5.2201  -27.7678 H   0  0  0  0  0  0  0  0  0  0  0  0
  -15.5170   -7.5952  -27.5758 H   0  0  0  0  0  0  0  0  0  0  0  0
  -18.3185   -6.7228  -24.4416 H   0  0  0  0  0  0  0  0  0  0  0  0
  -17.8058   -4.3536  -24.6053 H   0  0  0  0  0  0  0  0  0  0  0  0
  3  1  1  0
  3  5  1  0
  6  3  1  0
  7  3  1  0
  8  1  2  0
  9  8  1  0
 10  2  1  0
 10  9  2  0
 11 10  1  0
 12 11  2  0
 12  1  1  0
 13  6  2  0
 14 13  1  0
 15 14  2  0
 15  4  1  0
 16 15  1  0
 17 16  2  0
 17  6  1  0
  2 18  1  0
  4 19  1  0
  5 20  1  0
  5 21  1  0
  5 22  1  0
  7 23  1  0
  7 24  1  0
  7 25  1  0
  8 26  1  0
  9 27  1  0
 11 28  1  0
 12 29  1  0
 13 30  1  0
 14 31  1  0
 16 32  1  0
 17 33  1  0
M  END
