
     RDKit          3D

 42 44  0  0  0  0  0  0  0  0999 V2000
   -5.3515   45.5935   58.6078 P   0  0  0  0  0  0  0  0  0  0  0  0
   -9.2475   46.5694   64.6159 P   0  0  0  0  0  0  0  0  0  0  0  0
   -6.3049   44.4249   58.6823 O   0  0  0  0  0  0  0  0  0  0  0  0
   -3.8000   45.1579   59.0668 O   0  0  0  0  0  0  0  0  0  0  0  0
   -5.2974   46.1770   57.0336 O   0  0  0  0  0  0  0  0  0  0  0  0
   -8.6945   45.1840   64.8593 O   0  0  0  0  0  0  0  0  0  0  0  0
   -8.7579   47.6532   65.8003 O   0  0  0  0  0  0  0  0  0  0  0  0
  -10.9264   46.5176   64.5756 O   0  0  0  0  0  0  0  0  0  0  0  0
   -8.1734   46.1756   62.3211 C   0  0  0  0  0  0  0  0  0  0  0  0
   -8.7804   47.1626   63.1123 O   0  0  0  0  0  0  0  0  0  0  0  0
   -7.5223   46.9385   61.1647 C   0  0  1  0  0  0  0  0  0  0  0  0
   -7.6309   48.3384   61.4009 O   0  0  0  0  0  0  0  0  0  0  0  0
   -6.0469   46.6066   60.9266 C   0  0  1  0  0  0  0  0  0  0  0  0
   -5.8635   46.8936   59.5505 O   0  0  0  0  0  0  0  0  0  0  0  0
   -5.4146   47.6718   61.8025 C   0  0  1  0  0  0  0  0  0  0  0  0
   -4.0654   47.9077   61.5114 O   0  0  0  0  0  0  0  0  0  0  0  0
   -6.3102   48.8387   61.4311 C   0  0  2  0  0  0  0  0  0  0  0  0
   -5.5752   53.9077   61.6427 N   0  0  0  0  0  0  0  0  0  0  0  0
   -5.6788   53.0892   60.5502 C   0  0  0  0  0  0  0  0  0  0  0  0
   -5.8793   51.7475   60.7053 N   0  0  0  0  0  0  0  0  0  0  0  0
   -5.9780   51.2541   61.9659 C   0  0  0  0  0  0  0  0  0  0  0  0
   -5.8794   52.0361   63.0671 C   0  0  0  0  0  0  0  0  0  0  0  0
   -5.6690   53.4159   62.9140 C   0  0  0  0  0  0  0  0  0  0  0  0
   -5.5462   54.2971   64.0265 N   0  0  0  0  0  0  0  0  0  0  0  0
   -6.0162   51.2828   64.1823 N   0  0  0  0  0  0  0  0  0  0  0  0
   -6.1981   50.0239   63.6890 C   0  0  0  0  0  0  0  0  0  0  0  0
   -6.1765   49.9811   62.3317 N   0  0  0  0  0  0  0  0  0  0  0  0
   -3.9063   44.6988   59.9381 H   0  0  0  0  0  0  0  0  0  0  0  0
   -5.8398   45.5370   56.5069 H   0  0  0  0  0  0  0  0  0  0  0  0
   -8.1670   48.2973   65.3346 H   0  0  0  0  0  0  0  0  0  0  0  0
  -11.1439   45.9103   63.8239 H   0  0  0  0  0  0  0  0  0  0  0  0
   -7.3941   45.6082   62.8781 H   0  0  0  0  0  0  0  0  0  0  0  0
   -8.9496   45.4805   61.9320 H   0  0  0  0  0  0  0  0  0  0  0  0
   -8.0988   46.6908   60.2419 H   0  0  0  0  0  0  0  0  0  0  0  0
   -5.7766   45.5649   61.2127 H   0  0  0  0  0  0  0  0  0  0  0  0
   -5.5276   47.3887   62.8753 H   0  0  0  0  0  0  0  0  0  0  0  0
   -3.9909   47.9277   60.5220 H   0  0  0  0  0  0  0  0  0  0  0  0
   -6.0506   49.1809   60.4015 H   0  0  0  0  0  0  0  0  0  0  0  0
   -5.5986   53.5081   59.5566 H   0  0  0  0  0  0  0  0  0  0  0  0
   -4.6069   54.5052   64.4321 H   0  0  0  0  0  0  0  0  0  0  0  0
   -6.3894   54.7450   64.4494 H   0  0  0  0  0  0  0  0  0  0  0  0
   -6.3482   49.1564   64.3180 H   0  0  0  0  0  0  0  0  0  0  0  0
  3  1  2  0
  4  1  1  0
  5  1  1  0
  6  2  2  0
  7  2  1  0
  8  2  1  0
 10  2  1  0
 10  9  1  0
 11  9  1  0
 12 11  1  0
 13 11  1  0
 13 14  1  0
 14  1  1  0
 15 13  1  0
 15 16  1  0
 17 15  1  0
 17 12  1  0
 19 18  2  0
 20 19  1  0
 21 20  2  0
 22 21  1  0
 23 22  2  0
 23 18  1  0
 24 23  1  0
 25 22  1  0
 26 25  2  0
 17 27  1  0
 27 26  1  0
 27 21  1  0
  4 28  1  0
  5 29  1  0
  7 30  1  0
  8 31  1  0
  9 32  1  0
  9 33  1  0
 11 34  1  6
 13 35  1  1
 15 36  1  1
 16 37  1  0
 17 38  1  6
 19 39  1  0
 24 40  1  0
 24 41  1  0
 26 42  1  0
M  END
