
     RDKit          3D

 29 30  0  0  0  0  0  0  0  0999 V2000
   75.2513   38.9771   -3.2705 N   0  0  0  0  0  0  0  0  0  0  0  0
   75.3080   39.8731   -2.1110 C   0  0  2  0  0  0  0  0  0  0  0  0
   75.3718   39.0664   -0.8419 C   0  0  0  0  0  0  0  0  0  0  0  0
   76.0904   38.0343   -0.7864 O   0  0  0  0  0  0  0  0  0  0  0  0
   74.7286   39.5070    0.3044 O   0  0  0  0  0  0  0  0  0  0  0  0
   74.9887   42.6213   -3.6237 C   0  0  0  0  0  0  0  0  0  0  0  0
   74.0232   41.6387   -3.3689 C   0  0  0  0  0  0  0  0  0  0  0  0
   72.9620   41.4571   -4.2717 C   0  0  0  0  0  0  0  0  0  0  0  0
   72.8493   42.2696   -5.4027 C   0  0  0  0  0  0  0  0  0  0  0  0
   73.8095   43.2591   -5.6521 C   0  0  0  0  0  0  0  0  0  0  0  0
   73.7166   44.0798   -6.7833 C   0  0  0  0  0  0  0  0  0  0  0  0
   74.6953   45.0452   -7.0280 C   0  0  0  0  0  0  0  0  0  0  0  0
   75.7649   45.2065   -6.1449 C   0  0  0  0  0  0  0  0  0  0  0  0
   75.8654   44.4008   -5.0123 C   0  0  0  0  0  0  0  0  0  0  0  0
   74.8940   43.4248   -4.7594 C   0  0  0  0  0  0  0  0  0  0  0  0
   74.1018   40.8334   -2.0997 C   0  0  0  0  0  0  0  0  0  0  0  0
   74.3152   38.5108   -3.3119 H   0  0  0  0  0  0  0  0  0  0  0  0
   75.3738   39.5332   -4.1475 H   0  0  0  0  0  0  0  0  0  0  0  0
   76.2540   40.4534   -2.1561 H   0  0  0  0  0  0  0  0  0  0  0  0
   74.8204   40.4661    0.6173 H   0  0  0  0  0  0  0  0  0  0  0  0
   75.7951   42.7865   -2.9193 H   0  0  0  0  0  0  0  0  0  0  0  0
   72.2073   40.7027   -4.0875 H   0  0  0  0  0  0  0  0  0  0  0  0
   72.0159   42.1239   -6.0796 H   0  0  0  0  0  0  0  0  0  0  0  0
   72.8946   43.9699   -7.4808 H   0  0  0  0  0  0  0  0  0  0  0  0
   74.6230   45.6744   -7.9057 H   0  0  0  0  0  0  0  0  0  0  0  0
   76.5176   45.9593   -6.3407 H   0  0  0  0  0  0  0  0  0  0  0  0
   76.7016   44.5409   -4.3372 H   0  0  0  0  0  0  0  0  0  0  0  0
   74.1965   41.5433   -1.2492 H   0  0  0  0  0  0  0  0  0  0  0  0
   73.1656   40.2527   -1.9429 H   0  0  0  0  0  0  0  0  0  0  0  0
  2  1  1  0
  3  2  1  0
  4  3  2  0
  5  3  1  0
  7  6  2  0
  8  7  1  0
  9  8  2  0
 10  9  1  0
 11 10  2  0
 12 11  1  0
 13 12  2  0
 14 13  1  0
 15  6  1  0
 15 14  2  0
 15 10  1  0
 16  7  1  0
 16  2  1  0
  1 17  1  0
  1 18  1  0
  2 19  1  6
  5 20  1  0
  6 21  1  0
  8 22  1  0
  9 23  1  0
 11 24  1  0
 12 25  1  0
 13 26  1  0
 14 27  1  0
 16 28  1  0
 16 29  1  0
M  END
