
     RDKit          3D

 32 33  0  0  0  0  0  0  0  0999 V2000
   14.4896    2.8812   50.1568 N   0  0  0  0  0  0  0  0  0  0  0  0
   14.5824    2.4431   51.4373 C   0  0  0  0  0  0  0  0  0  0  0  0
   13.4946    1.7395   52.0205 N   0  0  0  0  0  0  0  0  0  0  0  0
   15.7128    2.6788   52.1621 N   0  0  0  0  0  0  0  0  0  0  0  0
   16.7685    3.3514   51.6267 C   0  0  0  0  0  0  0  0  0  0  0  0
   16.6859    3.8100   50.3066 C   0  0  0  0  0  0  0  0  0  0  0  0
   17.7990    3.5621   52.3255 O   0  0  0  0  0  0  0  0  0  0  0  0
   17.7477    4.5481   49.6928 N   0  0  0  0  0  0  0  0  0  0  0  0
   17.4450    5.3976   48.5366 C   0  0  2  0  0  0  0  0  0  0  0  0
   16.5117    4.6525   47.5485 C   0  0  0  0  0  0  0  0  0  0  0  0
   15.5138    3.5561   49.5812 C   0  0  0  0  0  0  0  0  0  0  0  0
   15.3887    4.0247   48.2419 N   0  0  0  0  0  0  0  0  0  0  0  0
   18.7615    5.9090   47.8910 C   0  0  1  0  0  0  0  0  0  0  0  0
   19.6379    4.8508   47.5797 O   0  0  0  0  0  0  0  0  0  0  0  0
   18.5141    6.8095   46.6634 C   0  0  1  0  0  0  0  0  0  0  0  0
   18.2894    5.9947   45.5407 O   0  0  0  0  0  0  0  0  0  0  0  0
   17.3045    7.7181   46.8935 C   0  0  0  0  0  0  0  0  0  0  0  0
   13.5829    1.3078   52.9672 H   0  0  0  0  0  0  0  0  0  0  0  0
   12.5909    1.6460   51.5060 H   0  0  0  0  0  0  0  0  0  0  0  0
   15.7721    2.3383   53.1488 H   0  0  0  0  0  0  0  0  0  0  0  0
   18.6890    4.5865   50.1465 H   0  0  0  0  0  0  0  0  0  0  0  0
   16.8812    6.2788   48.9162 H   0  0  0  0  0  0  0  0  0  0  0  0
   17.0715    3.8587   47.0126 H   0  0  0  0  0  0  0  0  0  0  0  0
   16.1095    5.3640   46.7966 H   0  0  0  0  0  0  0  0  0  0  0  0
   14.5177    3.8140   47.7047 H   0  0  0  0  0  0  0  0  0  0  0  0
   19.2668    6.5329   48.6621 H   0  0  0  0  0  0  0  0  0  0  0  0
   19.9596    4.9800   46.6507 H   0  0  0  0  0  0  0  0  0  0  0  0
   19.4050    7.4572   46.4914 H   0  0  0  0  0  0  0  0  0  0  0  0
   19.1779    5.8084   45.1386 H   0  0  0  0  0  0  0  0  0  0  0  0
   17.6458    8.7203   47.2292 H   0  0  0  0  0  0  0  0  0  0  0  0
   16.6437    7.2969   47.6805 H   0  0  0  0  0  0  0  0  0  0  0  0
   16.7228    7.8387   45.9546 H   0  0  0  0  0  0  0  0  0  0  0  0
  2  1  2  0
  3  2  1  0
  4  2  1  0
  5  4  1  0
  6  5  1  0
  7  5  2  0
  8  6  1  0
  9  8  1  0
  9 10  1  0
 11  1  1  0
 11  6  2  0
 12 11  1  0
 12 10  1  0
 13  9  1  0
 13 14  1  0
 15 13  1  0
 16 15  1  0
 15 17  1  0
  3 18  1  0
  3 19  1  0
  4 20  1  0
  8 21  1  0
  9 22  1  1
 10 23  1  0
 10 24  1  0
 12 25  1  0
 13 26  1  1
 14 27  1  0
 15 28  1  6
 16 29  1  0
 17 30  1  0
 17 31  1  0
 17 32  1  0
M  END
