
     RDKit          3D

 15 16  0  0  0  0  0  0  0  0999 V2000
   27.8259    7.6202    1.7947 O   0  0  0  0  0  0  0  0  0  0  0  0
   28.5345    8.7379    1.8642 C   0  0  0  0  0  0  0  0  0  0  0  0
   28.3906    9.3271    3.1141 C   0  0  0  0  0  0  0  0  0  0  0  0
   27.5543    8.4728    3.8014 C   0  0  0  0  0  0  0  0  0  0  0  0
   27.0535    8.5332    5.0975 C   0  0  0  0  0  0  0  0  0  0  0  0
   26.1844    7.5102    5.5123 C   0  0  0  0  0  0  0  0  0  0  0  0
   25.8370    6.4627    4.6333 C   0  0  0  0  0  0  0  0  0  0  0  0
   26.3645    6.4223    3.3319 C   0  0  0  0  0  0  0  0  0  0  0  0
   27.2293    7.4492    2.9509 C   0  0  0  0  0  0  0  0  0  0  0  0
   29.1335    9.1273    1.0519 H   0  0  0  0  0  0  0  0  0  0  0  0
   28.8426   10.2435    3.4698 H   0  0  0  0  0  0  0  0  0  0  0  0
   27.3172    9.3450    5.7631 H   0  0  0  0  0  0  0  0  0  0  0  0
   25.7737    7.5290    6.5134 H   0  0  0  0  0  0  0  0  0  0  0  0
   25.1631    5.6834    4.9645 H   0  0  0  0  0  0  0  0  0  0  0  0
   26.1085    5.6236    2.6482 H   0  0  0  0  0  0  0  0  0  0  0  0
  2  1  1  0
  3  2  2  0
  4  3  1  0
  5  4  2  0
  6  5  1  0
  7  6  2  0
  8  7  1  0
  9  8  2  0
  9  4  1  0
  9  1  1  0
  2 10  1  0
  3 11  1  0
  5 12  1  0
  6 13  1  0
  7 14  1  0
  8 15  1  0
M  END
