
     RDKit          3D

 21 20  0  0  0  0  0  0  0  0999 V2000
   14.2287   16.0486   14.1793 N   0  0  0  0  0  0  0  0  0  0  0  0
   13.2850   14.9250   14.2256 C   0  0  2  0  0  0  0  0  0  0  0  0
   13.7893   13.7519   13.4211 C   0  0  0  0  0  0  0  0  0  0  0  0
   11.9004   15.3830   13.7068 C   0  0  0  0  0  0  0  0  0  0  0  0
   10.9838   15.9236   14.8266 C   0  0  1  0  0  0  0  0  0  0  0  0
    9.7101   16.5383   14.2312 C   0  0  0  0  0  0  0  0  0  0  0  0
   10.6186   14.8534   15.8314 C   0  0  0  0  0  0  0  0  0  0  0  0
   11.4377   14.4753   16.7118 O   0  0  0  0  0  0  0  0  0  0  0  0
    9.3718   14.2552   15.7755 O   0  0  0  0  0  0  0  0  0  0  0  0
   13.0409   13.2767   12.3592 O   0  0  0  0  0  0  0  0  0  0  0  0
   14.8620   13.1682   13.7267 O   0  0  0  0  0  0  0  0  0  0  0  0
   15.2013   15.6816   14.2980 H   0  0  0  0  0  0  0  0  0  0  0  0
   14.1743   16.5186   13.2456 H   0  0  0  0  0  0  0  0  0  0  0  0
   13.1929   14.5816   15.2785 H   0  0  0  0  0  0  0  0  0  0  0  0
   11.3734   14.5502   13.1913 H   0  0  0  0  0  0  0  0  0  0  0  0
   12.0562   16.1729   12.9384 H   0  0  0  0  0  0  0  0  0  0  0  0
   11.5252   16.7339   15.3628 H   0  0  0  0  0  0  0  0  0  0  0  0
    8.9414   16.6824   15.0209 H   0  0  0  0  0  0  0  0  0  0  0  0
    9.9366   17.5222   13.7675 H   0  0  0  0  0  0  0  0  0  0  0  0
    9.2954   15.8751   13.4423 H   0  0  0  0  0  0  0  0  0  0  0  0
    8.6876   14.5294   15.0805 H   0  0  0  0  0  0  0  0  0  0  0  0
  2  1  1  0
  3  2  1  0
  4  2  1  0
  5  4  1  0
  5  6  1  0
  7  5  1  0
  8  7  2  0
  9  7  1  0
 10  3  1  0
 11  3  2  0
  1 12  1  0
  1 13  1  0
  2 14  1  1
  4 15  1  0
  4 16  1  0
  5 17  1  1
  6 18  1  0
  6 19  1  0
  6 20  1  0
  9 21  1  0
M  CHG  1  10  -1
M  END
