
     RDKit          3D

 21 20  0  0  0  0  0  0  0  0999 V2000
   14.2842   16.6735   13.6983 N   0  0  0  0  0  0  0  0  0  0  0  0
   13.3511   15.5410   13.7428 C   0  0  2  0  0  0  0  0  0  0  0  0
   13.6942   14.5066   12.6988 C   0  0  0  0  0  0  0  0  0  0  0  0
   11.9021   16.0490   13.5471 C   0  0  0  0  0  0  0  0  0  0  0  0
   11.4267   16.9749   14.6885 C   0  0  1  0  0  0  0  0  0  0  0  0
   10.0669   17.5982   14.3464 C   0  0  0  0  0  0  0  0  0  0  0  0
   11.3426   16.2500   16.0137 C   0  0  0  0  0  0  0  0  0  0  0  0
   10.2384   16.0785   16.5969 O   0  0  0  0  0  0  0  0  0  0  0  0
   12.4980   15.7840   16.6164 O   0  0  0  0  0  0  0  0  0  0  0  0
   12.6865   13.7550   12.1217 O   0  0  0  0  0  0  0  0  0  0  0  0
   14.8898   14.2842   12.3735 O   0  0  0  0  0  0  0  0  0  0  0  0
   15.2611   16.3143   13.8048 H   0  0  0  0  0  0  0  0  0  0  0  0
   14.2170   17.1515   12.7694 H   0  0  0  0  0  0  0  0  0  0  0  0
   13.4411   15.0454   14.7334 H   0  0  0  0  0  0  0  0  0  0  0  0
   11.1903   15.1983   13.4636 H   0  0  0  0  0  0  0  0  0  0  0  0
   11.8480   16.5935   12.5779 H   0  0  0  0  0  0  0  0  0  0  0  0
   12.1574   17.8069   14.7931 H   0  0  0  0  0  0  0  0  0  0  0  0
    9.2910   16.8088   14.2453 H   0  0  0  0  0  0  0  0  0  0  0  0
    9.7556   18.3069   15.1433 H   0  0  0  0  0  0  0  0  0  0  0  0
   10.1318   18.1630   13.3919 H   0  0  0  0  0  0  0  0  0  0  0  0
   12.7994   14.8234   16.5036 H   0  0  0  0  0  0  0  0  0  0  0  0
  2  1  1  0
  3  2  1  0
  4  2  1  0
  5  4  1  0
  5  6  1  0
  7  5  1  0
  8  7  2  0
  9  7  1  0
 10  3  1  0
 11  3  2  0
  1 12  1  0
  1 13  1  0
  2 14  1  1
  4 15  1  0
  4 16  1  0
  5 17  1  1
  6 18  1  0
  6 19  1  0
  6 20  1  0
  9 21  1  0
M  CHG  1  10  -1
M  END
