
     RDKit          3D

 21 20  0  0  0  0  0  0  0  0999 V2000
   32.5248   15.9428   39.6908 N   0  0  0  0  0  0  0  0  0  0  0  0
   33.4852   14.8330   39.6360 C   0  0  2  0  0  0  0  0  0  0  0  0
   33.1921   13.8422   40.7318 C   0  0  0  0  0  0  0  0  0  0  0  0
   34.9427   15.3511   39.7471 C   0  0  0  0  0  0  0  0  0  0  0  0
   35.5343   15.7885   38.3893 C   0  0  1  0  0  0  0  0  0  0  0  0
   37.0464   15.5373   38.3559 C   0  0  0  0  0  0  0  0  0  0  0  0
   34.8634   15.0906   37.2278 C   0  0  0  0  0  0  0  0  0  0  0  0
   35.4961   14.2817   36.4966 O   0  0  0  0  0  0  0  0  0  0  0  0
   33.5348   15.3535   36.9430 O   0  0  0  0  0  0  0  0  0  0  0  0
   34.0776   12.8081   40.9796 O   0  0  0  0  0  0  0  0  0  0  0  0
   32.1259   13.9114   41.3977 O   0  0  0  0  0  0  0  0  0  0  0  0
   32.7838   16.6073   40.4564 H   0  0  0  0  0  0  0  0  0  0  0  0
   32.5407   16.4657   38.7866 H   0  0  0  0  0  0  0  0  0  0  0  0
   33.3474   14.2919   38.6751 H   0  0  0  0  0  0  0  0  0  0  0  0
   34.9673   16.2054   40.4593 H   0  0  0  0  0  0  0  0  0  0  0  0
   35.6064   14.5730   40.1845 H   0  0  0  0  0  0  0  0  0  0  0  0
   35.3896   16.8819   38.2643 H   0  0  0  0  0  0  0  0  0  0  0  0
   37.2638   14.4545   38.4803 H   0  0  0  0  0  0  0  0  0  0  0  0
   37.4736   15.8794   37.3891 H   0  0  0  0  0  0  0  0  0  0  0  0
   37.5485   16.1010   39.1710 H   0  0  0  0  0  0  0  0  0  0  0  0
   32.8297   14.6289   37.0062 H   0  0  0  0  0  0  0  0  0  0  0  0
  2  1  1  0
  3  2  1  0
  4  2  1  0
  5  4  1  0
  5  6  1  0
  7  5  1  0
  8  7  2  0
  9  7  1  0
 10  3  1  0
 11  3  2  0
  1 12  1  0
  1 13  1  0
  2 14  1  6
  4 15  1  0
  4 16  1  0
  5 17  1  6
  6 18  1  0
  6 19  1  0
  6 20  1  0
  9 21  1  0
M  CHG  1  10  -1
M  END
