
     RDKit          3D

 72 74  0  0  0  0  0  0  0  0999 V2000
  -14.5925   -8.5922   31.2934 C   0  0  1  0  0  0  0  0  0  0  0  0
  -13.6228   -9.2509   30.5126 O   0  0  0  0  0  0  0  0  0  0  0  0
  -15.2805   -9.5889   32.2481 C   0  0  0  0  0  0  0  0  0  0  0  0
  -16.3420   -8.8952   33.1183 C   0  0  2  0  0  0  0  0  0  0  0  0
  -17.3759   -8.3746   32.3180 O   0  0  0  0  0  0  0  0  0  0  0  0
  -15.7090   -7.7712   33.9541 C   0  0  0  0  0  0  0  0  0  0  0  0
  -14.9101   -6.8073   33.1041 C   0  0  0  0  0  0  0  0  0  0  0  0
  -14.9843   -5.4853   33.3753 C   0  0  0  0  0  0  0  0  0  0  0  0
  -14.2676   -4.4228   32.6331 C   0  0  0  0  0  0  0  0  0  0  0  0
  -14.0591   -3.1756   33.1069 C   0  0  0  0  0  0  0  0  0  0  0  0
  -14.5462   -2.6560   34.4496 C   0  0  0  0  0  0  0  0  0  0  0  0
  -14.0248   -7.4179   32.0747 C   0  0  0  0  0  0  0  0  0  0  0  0
  -13.3726   -2.0709   35.2589 C   0  0  0  0  0  0  0  0  0  0  0  0
  -12.5342   -1.0491   34.4589 C   0  0  0  0  0  0  0  0  0  0  0  0
  -12.0749   -1.6295   33.1006 C   0  0  1  0  0  0  0  0  0  0  0  0
  -13.3074   -2.1240   32.3342 C   0  0  1  0  0  0  0  0  0  0  0  0
  -12.8069   -2.3529   30.9109 C   0  0  0  0  0  0  0  0  0  0  0  0
  -11.7481   -1.2501   30.7139 C   0  0  0  0  0  0  0  0  0  0  0  0
  -11.5761   -0.5710   32.0943 C   0  0  2  0  0  0  0  0  0  0  0  0
  -11.0299   -2.7640   33.3247 C   0  0  0  0  0  0  0  0  0  0  0  0
  -12.7463   -7.0351   31.9474 C   0  0  0  0  0  0  0  0  0  0  0  0
  -10.1941    0.0832   32.3548 C   0  0  2  0  0  0  0  0  0  0  0  0
   -9.8683    1.0428   31.1949 C   0  0  0  0  0  0  0  0  0  0  0  0
   -9.1875   -0.9090   32.4685 O   0  0  0  0  0  0  0  0  0  0  0  0
   -8.0515   -0.4185   33.1598 C   0  0  0  0  0  0  0  0  0  0  0  0
   -7.1004   -1.5914   33.4165 C   0  0  0  0  0  0  0  0  0  0  0  0
   -5.6700   -1.1863   33.8615 C   0  0  0  0  0  0  0  0  0  0  0  0
   -5.7068   -0.3861   35.1780 C   0  0  0  0  0  0  0  0  0  0  0  0
   -4.8456   -2.4724   34.0520 C   0  0  0  0  0  0  0  0  0  0  0  0
   -5.0656   -0.4084   32.8542 O   0  0  0  0  0  0  0  0  0  0  0  0
  -15.3587   -8.1883   30.5970 H   0  0  0  0  0  0  0  0  0  0  0  0
  -12.9230   -8.5874   30.2739 H   0  0  0  0  0  0  0  0  0  0  0  0
  -14.5227  -10.0638   32.9103 H   0  0  0  0  0  0  0  0  0  0  0  0
  -15.7603  -10.3965   31.6534 H   0  0  0  0  0  0  0  0  0  0  0  0
  -16.7666   -9.6454   33.8255 H   0  0  0  0  0  0  0  0  0  0  0  0
  -17.6522   -9.1004   31.6994 H   0  0  0  0  0  0  0  0  0  0  0  0
  -15.0261   -8.2177   34.7094 H   0  0  0  0  0  0  0  0  0  0  0  0
  -16.5213   -7.2536   34.5110 H   0  0  0  0  0  0  0  0  0  0  0  0
  -15.6611   -5.1883   34.1608 H   0  0  0  0  0  0  0  0  0  0  0  0
  -13.9091   -4.6724   31.6467 H   0  0  0  0  0  0  0  0  0  0  0  0
  -15.3033   -1.8611   34.2747 H   0  0  0  0  0  0  0  0  0  0  0  0
  -15.0237   -3.4222   35.0845 H   0  0  0  0  0  0  0  0  0  0  0  0
  -12.7214   -2.8969   35.6163 H   0  0  0  0  0  0  0  0  0  0  0  0
  -13.7775   -1.5682   36.1636 H   0  0  0  0  0  0  0  0  0  0  0  0
  -11.6542   -0.7420   35.0642 H   0  0  0  0  0  0  0  0  0  0  0  0
  -13.1544   -0.1399   34.2965 H   0  0  0  0  0  0  0  0  0  0  0  0
  -14.0382   -1.2818   32.2446 H   0  0  0  0  0  0  0  0  0  0  0  0
  -12.3259   -3.3480   30.7996 H   0  0  0  0  0  0  0  0  0  0  0  0
  -13.6343   -2.2587   30.1742 H   0  0  0  0  0  0  0  0  0  0  0  0
  -12.0930   -0.5084   29.9607 H   0  0  0  0  0  0  0  0  0  0  0  0
  -10.7975   -1.7005   30.3554 H   0  0  0  0  0  0  0  0  0  0  0  0
  -12.3180    0.2635   32.1271 H   0  0  0  0  0  0  0  0  0  0  0  0
  -10.9747   -3.0665   34.3903 H   0  0  0  0  0  0  0  0  0  0  0  0
  -11.2651   -3.6758   32.7391 H   0  0  0  0  0  0  0  0  0  0  0  0
  -10.0194   -2.4207   33.0175 H   0  0  0  0  0  0  0  0  0  0  0  0
  -12.0836   -7.4823   31.2195 H   0  0  0  0  0  0  0  0  0  0  0  0
  -12.3213   -6.2754   32.5906 H   0  0  0  0  0  0  0  0  0  0  0  0
  -10.2883    0.6860   33.2880 H   0  0  0  0  0  0  0  0  0  0  0  0
  -10.7111    1.7418   31.0078 H   0  0  0  0  0  0  0  0  0  0  0  0
   -8.9863    1.6706   31.4319 H   0  0  0  0  0  0  0  0  0  0  0  0
   -9.6608    0.4713   30.2653 H   0  0  0  0  0  0  0  0  0  0  0  0
   -7.5177    0.3427   32.5541 H   0  0  0  0  0  0  0  0  0  0  0  0
   -8.3491    0.0207   34.1385 H   0  0  0  0  0  0  0  0  0  0  0  0
   -7.0202   -2.1806   32.4753 H   0  0  0  0  0  0  0  0  0  0  0  0
   -7.5619   -2.2566   34.1803 H   0  0  0  0  0  0  0  0  0  0  0  0
   -6.1893    0.6017   35.0224 H   0  0  0  0  0  0  0  0  0  0  0  0
   -4.6769   -0.2027   35.5529 H   0  0  0  0  0  0  0  0  0  0  0  0
   -6.2692   -0.9426   35.9584 H   0  0  0  0  0  0  0  0  0  0  0  0
   -5.3075   -3.1249   34.8244 H   0  0  0  0  0  0  0  0  0  0  0  0
   -3.8105   -2.2302   34.3760 H   0  0  0  0  0  0  0  0  0  0  0  0
   -4.7835   -3.0391   33.0980 H   0  0  0  0  0  0  0  0  0  0  0  0
   -4.1532   -0.1598   33.1592 H   0  0  0  0  0  0  0  0  0  0  0  0
  1  2  1  0
  3  1  1  0
  4  3  1  0
  4  5  1  0
  6  4  1  0
  7  6  1  0
  8  7  2  3
  9  8  1  0
 10  9  2  3
 11 10  1  0
 12  7  1  0
 12  1  1  0
 13 11  1  0
 14 13  1  0
 15 14  1  0
 16 15  1  0
 16 10  1  0
 16 17  1  0
 18 17  1  0
 19 18  1  0
 19 15  1  0
 15 20  1  1
 21 12  2  0
 22 19  1  0
 22 23  1  0
 24 22  1  0
 25 24  1  0
 26 25  1  0
 27 26  1  0
 27 28  1  0
 29 27  1  0
 30 27  1  0
  1 31  1  6
  2 32  1  0
  3 33  1  0
  3 34  1  0
  4 35  1  1
  5 36  1  0
  6 37  1  0
  6 38  1  0
  8 39  1  0
  9 40  1  0
 11 41  1  0
 11 42  1  0
 13 43  1  0
 13 44  1  0
 14 45  1  0
 14 46  1  0
 16 47  1  6
 17 48  1  0
 17 49  1  0
 18 50  1  0
 18 51  1  0
 19 52  1  6
 20 53  1  0
 20 54  1  0
 20 55  1  0
 21 56  1  0
 21 57  1  0
 22 58  1  1
 23 59  1  0
 23 60  1  0
 23 61  1  0
 25 62  1  0
 25 63  1  0
 26 64  1  0
 26 65  1  0
 28 66  1  0
 28 67  1  0
 28 68  1  0
 29 69  1  0
 29 70  1  0
 29 71  1  0
 30 72  1  0
M  END
