
     RDKit          3D

 29 31  0  0  0  0  0  0  0  0999 V2000
  -32.4736  -17.0060  -30.7881 C   0  0  0  0  0  0  0  0  0  0  0  0
  -31.8747  -17.8478  -28.1634 N   0  0  0  0  0  0  0  0  0  0  0  0
  -32.7476  -16.6263  -32.1098 O   0  0  0  0  0  0  0  0  0  0  0  0
  -32.1642  -18.3568  -30.4882 C   0  0  0  0  0  0  0  0  0  0  0  0
  -32.2055  -15.5805  -27.5022 N   0  0  0  0  0  0  0  0  0  0  0  0
  -31.8714  -18.7535  -29.1756 C   0  0  0  0  0  0  0  0  0  0  0  0
  -32.1675  -16.5488  -28.4264 C   0  0  0  0  0  0  0  0  0  0  0  0
  -34.5793  -13.8460  -30.9262 N   0  0  0  0  0  0  0  0  0  0  0  0
  -36.4969  -13.2162  -32.2413 N   0  0  0  0  0  0  0  0  0  0  0  0
  -34.5945  -11.7600  -32.0121 N   0  0  0  0  0  0  0  0  0  0  0  0
  -32.5476  -14.4524  -28.1523 C   0  0  0  0  0  0  0  0  0  0  0  0
  -32.7340  -14.6849  -29.5258 C   0  0  0  0  0  0  0  0  0  0  0  0
  -32.4783  -16.0794  -29.7004 C   0  0  0  0  0  0  0  0  0  0  0  0
  -33.3381  -13.6213  -30.3993 C   0  0  0  0  0  0  0  0  0  0  0  0
  -35.2047  -12.9355  -31.7187 C   0  0  0  0  0  0  0  0  0  0  0  0
  -33.3711  -11.4741  -31.5024 C   0  0  0  0  0  0  0  0  0  0  0  0
  -32.7272  -12.3887  -30.6632 C   0  0  0  0  0  0  0  0  0  0  0  0
  -32.3446  -17.3752  -33.2596 C   0  0  0  0  0  0  0  0  0  0  0  0
  -32.1462  -19.1151  -31.2582 H   0  0  0  0  0  0  0  0  0  0  0  0
  -32.0250  -15.6810  -26.4787 H   0  0  0  0  0  0  0  0  0  0  0  0
  -31.6382  -19.7887  -28.9650 H   0  0  0  0  0  0  0  0  0  0  0  0
  -36.9807  -14.1103  -32.0029 H   0  0  0  0  0  0  0  0  0  0  0  0
  -36.9742  -12.5311  -32.8682 H   0  0  0  0  0  0  0  0  0  0  0  0
  -32.6946  -13.5049  -27.6493 H   0  0  0  0  0  0  0  0  0  0  0  0
  -32.9105  -10.5190  -31.7172 H   0  0  0  0  0  0  0  0  0  0  0  0
  -31.8186  -12.0877  -30.1791 H   0  0  0  0  0  0  0  0  0  0  0  0
  -32.8458  -16.9557  -34.1559 H   0  0  0  0  0  0  0  0  0  0  0  0
  -31.2457  -17.2997  -33.4018 H   0  0  0  0  0  0  0  0  0  0  0  0
  -32.6503  -18.4373  -33.1523 H   0  0  0  0  0  0  0  0  0  0  0  0
  3  1  1  0
  4  1  2  0
  6  4  1  0
  6  2  2  0
  7  5  1  0
  7  2  1  0
 11  5  1  0
 12 11  2  0
 13  1  1  0
 13 12  1  0
 13  7  2  0
 14 12  1  0
 14  8  2  0
 15 10  2  0
 15  8  1  0
 15  9  1  0
 16 10  1  0
 17 16  2  0
 17 14  1  0
 18  3  1  0
  4 19  1  0
  5 20  1  0
  6 21  1  0
  9 22  1  0
  9 23  1  0
 11 24  1  0
 16 25  1  0
 17 26  1  0
 18 27  1  0
 18 28  1  0
 18 29  1  0
M  END
