
     RDKit          3D

 50 49  0  0  0  0  0  0  0  0999 V2000
   14.3161   36.5837    5.5734 C   0  0  2  0  0  0  0  0  0  0  0  0
   14.4263   36.6245    7.0418 N   0  0  0  0  0  0  0  0  0  0  0  0
   15.6802   36.4633    4.9755 C   0  0  0  0  0  0  0  0  0  0  0  0
   16.6567   36.0899    5.6784 O   0  0  0  0  0  0  0  0  0  0  0  0
   15.8535   36.7186    3.6267 O   0  0  0  0  0  0  0  0  0  0  0  0
   13.6376   37.8440    5.0100 C   0  0  0  0  0  0  0  0  0  0  0  0
   12.3682   38.2177    5.7731 C   0  0  0  0  0  0  0  0  0  0  0  0
   12.2646   39.7344    5.8822 C   0  0  0  0  0  0  0  0  0  0  0  0
   10.8741   40.1593    5.5612 C   0  0  0  0  0  0  0  0  0  0  0  0
   10.5050   41.3445    5.7707 O   0  0  0  0  0  0  0  0  0  0  0  0
    9.9664   39.1883    5.0787 N   0  0  0  0  0  0  0  0  0  0  0  0
    8.7156   39.4998    4.3961 C   0  0  1  0  0  0  0  0  0  0  0  0
    9.0064   39.6592    2.8940 C   0  0  0  0  0  0  0  0  0  0  0  0
   10.7946   39.7861    2.4918 S   0  0  0  0  0  0  0  0  0  0  0  0
    7.7113   38.4108    4.6551 C   0  0  0  0  0  0  0  0  0  0  0  0
    8.0594   37.3146    5.1754 O   0  0  0  0  0  0  0  0  0  0  0  0
    6.3578   38.6112    4.2762 N   0  0  0  0  0  0  0  0  0  0  0  0
    5.4982   37.4967    3.8773 C   0  0  2  0  0  0  0  0  0  0  0  0
    4.4908   37.8798    2.7583 C   0  0  0  0  0  0  0  0  0  0  0  0
    4.8711   37.4883    1.3307 C   0  0  0  0  0  0  0  0  0  0  0  0
    6.2477   38.4761    0.6314 S   0  0  0  0  0  0  0  0  0  0  0  0
    6.2682   39.6811    1.9865 C   0  0  0  0  0  0  0  0  0  0  0  0
    4.8078   36.9432    5.0787 C   0  0  0  0  0  0  0  0  0  0  0  0
    5.2184   35.8891    5.6302 O   0  0  0  0  0  0  0  0  0  0  0  0
    3.7597   37.6479    5.6387 O   0  0  0  0  0  0  0  0  0  0  0  0
   13.7307   35.6851    5.2749 H   0  0  0  0  0  0  0  0  0  0  0  0
   15.2913   37.1393    7.3280 H   0  0  0  0  0  0  0  0  0  0  0  0
   13.6002   37.1283    7.4370 H   0  0  0  0  0  0  0  0  0  0  0  0
   15.4784   36.0902    2.9263 H   0  0  0  0  0  0  0  0  0  0  0  0
   13.3644   37.6727    3.9445 H   0  0  0  0  0  0  0  0  0  0  0  0
   14.3596   38.6914    5.0410 H   0  0  0  0  0  0  0  0  0  0  0  0
   12.3958   37.7934    6.7992 H   0  0  0  0  0  0  0  0  0  0  0  0
   11.4805   37.8113    5.2391 H   0  0  0  0  0  0  0  0  0  0  0  0
   12.9920   40.2220    5.1965 H   0  0  0  0  0  0  0  0  0  0  0  0
   12.5051   40.0576    6.9188 H   0  0  0  0  0  0  0  0  0  0  0  0
   10.1916   38.2021    5.3277 H   0  0  0  0  0  0  0  0  0  0  0  0
    8.2894   40.4560    4.7695 H   0  0  0  0  0  0  0  0  0  0  0  0
    8.5537   38.8460    2.2949 H   0  0  0  0  0  0  0  0  0  0  0  0
    8.5259   40.5983    2.5461 H   0  0  0  0  0  0  0  0  0  0  0  0
   11.3205   40.2875    3.6869 H   0  0  0  0  0  0  0  0  0  0  0  0
    5.9647   39.5783    4.3077 H   0  0  0  0  0  0  0  0  0  0  0  0
    6.1380   36.6659    3.5043 H   0  0  0  0  0  0  0  0  0  0  0  0
    4.2383   38.9596    2.7673 H   0  0  0  0  0  0  0  0  0  0  0  0
    3.5304   37.3656    2.9841 H   0  0  0  0  0  0  0  0  0  0  0  0
    3.9754   37.5826    0.6804 H   0  0  0  0  0  0  0  0  0  0  0  0
    5.1117   36.4240    1.3286 H   0  0  0  0  0  0  0  0  0  0  0  0
    5.3104   39.6557    2.5465 H   0  0  0  0  0  0  0  0  0  0  0  0
    7.1167   39.4865    2.6724 H   0  0  0  0  0  0  0  0  0  0  0  0
    6.3945   40.6957    1.5567 H   0  0  0  0  0  0  0  0  0  0  0  0
    2.8551   37.6841    5.1842 H   0  0  0  0  0  0  0  0  0  0  0  0
  1  2  1  0
  3  1  1  0
  4  3  2  0
  5  3  1  0
  6  1  1  0
  7  6  1  0
  8  7  1  0
  9  8  1  0
 10  9  2  0
 11  9  1  0
 12 11  1  0
 12 13  1  0
 14 13  1  0
 15 12  1  0
 16 15  2  0
 17 15  1  0
 18 17  1  0
 18 19  1  0
 20 19  1  0
 21 20  1  0
 22 21  1  0
 23 18  1  0
 24 23  2  0
 25 23  1  0
  1 26  1  1
  2 27  1  0
  2 28  1  0
  5 29  1  0
  6 30  1  0
  6 31  1  0
  7 32  1  0
  7 33  1  0
  8 34  1  0
  8 35  1  0
 11 36  1  0
 12 37  1  1
 13 38  1  0
 13 39  1  0
 14 40  1  0
 17 41  1  0
 18 42  1  6
 19 43  1  0
 19 44  1  0
 20 45  1  0
 20 46  1  0
 22 47  1  0
 22 48  1  0
 22 49  1  0
 25 50  1  0
M  END
