
     RDKit          3D

 31 32  0  0  0  0  0  0  0  0999 V2000
  -49.0473  -45.3688  -63.3351 O   0  0  0  0  0  0  0  0  0  0  0  0
  -49.3130  -45.8636  -65.5556 O   0  0  0  0  0  0  0  0  0  0  0  0
  -43.4464  -40.7620  -65.4335 C   0  0  0  0  0  0  0  0  0  0  0  0
  -44.0722  -40.8484  -66.6797 C   0  0  0  0  0  0  0  0  0  0  0  0
  -42.1601  -40.2178  -65.3716 O   0  0  0  0  0  0  0  0  0  0  0  0
  -45.3518  -41.3916  -66.7938 C   0  0  0  0  0  0  0  0  0  0  0  0
  -46.0258  -41.8511  -65.6560 C   0  0  0  0  0  0  0  0  0  0  0  0
  -45.4043  -41.7668  -64.3917 C   0  0  0  0  0  0  0  0  0  0  0  0
  -44.1188  -41.2227  -64.2853 C   0  0  0  0  0  0  0  0  0  0  0  0
  -47.3107  -42.3953  -65.7651 C   0  0  0  0  0  0  0  0  0  0  0  0
  -47.9944  -42.8514  -64.6266 C   0  0  0  0  0  0  0  0  0  0  0  0
  -50.4565  -42.8457  -63.9449 C   0  0  0  0  0  0  0  0  0  0  0  0
  -47.3528  -42.7896  -63.3751 C   0  0  0  0  0  0  0  0  0  0  0  0
  -40.9774  -41.0044  -65.4624 C   0  0  0  0  0  0  0  0  0  0  0  0
  -46.0766  -42.2379  -63.2578 C   0  0  0  0  0  0  0  0  0  0  0  0
  -49.3562  -43.4931  -64.7988 C   0  0  2  0  0  0  0  0  0  0  0  0
  -49.2464  -44.9595  -64.5101 C   0  0  0  0  0  0  0  0  0  0  0  0
  -49.5686  -46.8301  -65.3916 H   0  0  0  0  0  0  0  0  0  0  0  0
  -43.5607  -40.4956  -67.5664 H   0  0  0  0  0  0  0  0  0  0  0  0
  -45.8145  -41.4498  -67.7720 H   0  0  0  0  0  0  0  0  0  0  0  0
  -43.6517  -41.1644  -63.3108 H   0  0  0  0  0  0  0  0  0  0  0  0
  -47.7824  -42.4699  -66.7388 H   0  0  0  0  0  0  0  0  0  0  0  0
  -50.0799  -42.5351  -62.9478 H   0  0  0  0  0  0  0  0  0  0  0  0
  -51.2804  -43.5738  -63.7845 H   0  0  0  0  0  0  0  0  0  0  0  0
  -50.8758  -41.9605  -64.4691 H   0  0  0  0  0  0  0  0  0  0  0  0
  -47.8267  -43.1720  -62.4824 H   0  0  0  0  0  0  0  0  0  0  0  0
  -40.3559  -40.8264  -64.5611 H   0  0  0  0  0  0  0  0  0  0  0  0
  -40.3894  -40.7132  -66.3586 H   0  0  0  0  0  0  0  0  0  0  0  0
  -41.2359  -42.0838  -65.5027 H   0  0  0  0  0  0  0  0  0  0  0  0
  -45.6093  -42.1936  -62.2811 H   0  0  0  0  0  0  0  0  0  0  0  0
  -49.6726  -43.3699  -65.8591 H   0  0  0  0  0  0  0  0  0  0  0  0
  4  3  2  0
  5  3  1  0
  6  4  1  0
  7  6  2  0
  8  7  1  0
  9  3  1  0
  9  8  2  0
 10  7  1  0
 11 10  2  0
 13 11  1  0
 14  5  1  0
 15 13  2  0
 15  8  1  0
 16 12  1  0
 16 11  1  0
 17  2  1  0
 17 16  1  0
 17  1  2  0
  2 18  1  0
  4 19  1  0
  6 20  1  0
  9 21  1  0
 10 22  1  0
 12 23  1  0
 12 24  1  0
 12 25  1  0
 13 26  1  0
 14 27  1  0
 14 28  1  0
 14 29  1  0
 15 30  1  0
 16 31  1  6
M  END
