
     RDKit          3D

 31 32  0  0  0  0  0  0  0  0999 V2000
  -50.9834  -43.3212  -64.2390 O   0  0  0  0  0  0  0  0  0  0  0  0
  -50.6404  -44.6846  -62.4308 O   0  0  0  0  0  0  0  0  0  0  0  0
  -44.3276  -39.9414  -64.9293 C   0  0  0  0  0  0  0  0  0  0  0  0
  -44.4588  -40.6743  -66.1116 C   0  0  0  0  0  0  0  0  0  0  0  0
  -43.3758  -38.9183  -64.8834 O   0  0  0  0  0  0  0  0  0  0  0  0
  -45.3882  -41.7103  -66.2035 C   0  0  0  0  0  0  0  0  0  0  0  0
  -46.2053  -42.0224  -65.1102 C   0  0  0  0  0  0  0  0  0  0  0  0
  -46.0830  -41.2873  -63.9117 C   0  0  0  0  0  0  0  0  0  0  0  0
  -45.1462  -40.2505  -63.8261 C   0  0  0  0  0  0  0  0  0  0  0  0
  -47.1408  -43.0598  -65.1982 C   0  0  0  0  0  0  0  0  0  0  0  0
  -47.9678  -43.3728  -64.1075 C   0  0  0  0  0  0  0  0  0  0  0  0
  -49.0762  -45.0746  -65.6573 C   0  0  0  0  0  0  0  0  0  0  0  0
  -47.8162  -42.6524  -62.9075 C   0  0  0  0  0  0  0  0  0  0  0  0
  -42.2519  -38.8617  -65.7548 C   0  0  0  0  0  0  0  0  0  0  0  0
  -46.8936  -41.6096  -62.8170 C   0  0  0  0  0  0  0  0  0  0  0  0
  -48.9202  -44.5455  -64.2240 C   0  0  2  0  0  0  0  0  0  0  0  0
  -50.2481  -44.1568  -63.6483 C   0  0  0  0  0  0  0  0  0  0  0  0
  -50.1214  -44.4819  -61.5848 H   0  0  0  0  0  0  0  0  0  0  0  0
  -43.8326  -40.4415  -66.9637 H   0  0  0  0  0  0  0  0  0  0  0  0
  -45.4689  -42.2655  -67.1306 H   0  0  0  0  0  0  0  0  0  0  0  0
  -45.0605  -39.6945  -62.9016 H   0  0  0  0  0  0  0  0  0  0  0  0
  -47.2256  -43.6312  -66.1160 H   0  0  0  0  0  0  0  0  0  0  0  0
  -48.1676  -45.6106  -66.0035 H   0  0  0  0  0  0  0  0  0  0  0  0
  -49.2536  -44.2248  -66.3509 H   0  0  0  0  0  0  0  0  0  0  0  0
  -49.9497  -45.7584  -65.7193 H   0  0  0  0  0  0  0  0  0  0  0  0
  -48.4013  -42.8928  -62.0315 H   0  0  0  0  0  0  0  0  0  0  0  0
  -42.3020  -37.9255  -66.3475 H   0  0  0  0  0  0  0  0  0  0  0  0
  -42.2648  -39.7233  -66.4557 H   0  0  0  0  0  0  0  0  0  0  0  0
  -41.3097  -38.8548  -65.1668 H   0  0  0  0  0  0  0  0  0  0  0  0
  -46.8039  -41.0648  -61.8845 H   0  0  0  0  0  0  0  0  0  0  0  0
  -48.5143  -45.3904  -63.6231 H   0  0  0  0  0  0  0  0  0  0  0  0
  4  3  2  0
  5  3  1  0
  6  4  1  0
  7  6  2  0
  8  7  1  0
  9  3  1  0
  9  8  2  0
 10  7  1  0
 11 10  2  0
 13 11  1  0
 14  5  1  0
 15 13  2  0
 15  8  1  0
 16 12  1  0
 16 11  1  0
 17  2  1  0
 17 16  1  0
 17  1  2  0
  2 18  1  0
  4 19  1  0
  6 20  1  0
  9 21  1  0
 10 22  1  0
 12 23  1  0
 12 24  1  0
 12 25  1  0
 13 26  1  0
 14 27  1  0
 14 28  1  0
 14 29  1  0
 15 30  1  0
 16 31  1  1
M  END
