
     RDKit          3D

 37 39  0  0  0  0  0  0  0  0999 V2000
   50.5286    5.3291    3.2046 Cl  0  0  0  0  0  0  0  0  0  0  0  0
   54.8102   -1.0999    3.9059 C   0  0  0  0  0  0  0  0  0  0  0  0
   55.4318   -0.1319    4.7981 N   0  0  0  0  0  0  0  0  0  0  0  0
   56.8650   -0.3073    4.8770 C   0  0  1  0  0  0  0  0  0  0  0  0
   57.2057   -0.9915    3.5492 C   0  0  2  0  0  0  0  0  0  0  0  0
   55.9725   -1.8681    3.2736 C   0  0  0  0  0  0  0  0  0  0  0  0
   55.2273    1.2634    4.7000 C   0  0  0  0  0  0  0  0  0  0  0  0
   56.3605    1.9869    4.9572 O   0  0  0  0  0  0  0  0  0  0  0  0
   57.4607    1.1146    5.0863 C   0  0  1  0  0  0  0  0  0  0  0  0
   54.0985    1.7841    4.3489 N   0  0  0  0  0  0  0  0  0  0  0  0
   53.7842    3.1741    4.2477 C   0  0  0  0  0  0  0  0  0  0  0  0
   52.5042    3.5191    3.7820 C   0  0  0  0  0  0  0  0  0  0  0  0
   52.1362    4.8744    3.7445 C   0  0  0  0  0  0  0  0  0  0  0  0
   53.0490    5.8700    4.1345 C   0  0  0  0  0  0  0  0  0  0  0  0
   54.3278    5.5243    4.5576 C   0  0  0  0  0  0  0  0  0  0  0  0
   54.7019    4.1872    4.6012 C   0  0  0  0  0  0  0  0  0  0  0  0
   51.5104    2.4449    3.3873 C   0  0  0  0  0  0  0  0  0  0  0  0
   58.3935   -1.7383    3.6136 O   0  0  0  0  0  0  0  0  0  0  0  0
   52.6877    7.2555    4.0842 C   0  0  0  0  0  0  0  0  0  0  0  0
   52.4193    8.3782    4.0481 N   0  0  0  0  0  0  0  0  0  0  0  0
   58.0218    1.2836    6.4876 C   0  0  0  0  0  0  0  0  0  0  0  0
   57.3221    0.4803    7.3563 F   0  0  0  0  0  0  0  0  0  0  0  0
   57.9252    2.5997    6.8971 F   0  0  0  0  0  0  0  0  0  0  0  0
   59.3484    0.9209    6.4945 F   0  0  0  0  0  0  0  0  0  0  0  0
   54.1472   -1.7786    4.4835 H   0  0  0  0  0  0  0  0  0  0  0  0
   54.2199   -0.5883    3.1139 H   0  0  0  0  0  0  0  0  0  0  0  0
   57.0939   -0.9887    5.7281 H   0  0  0  0  0  0  0  0  0  0  0  0
   57.2957   -0.2330    2.7397 H   0  0  0  0  0  0  0  0  0  0  0  0
   55.8194   -2.0135    2.1823 H   0  0  0  0  0  0  0  0  0  0  0  0
   56.0736   -2.8599    3.7672 H   0  0  0  0  0  0  0  0  0  0  0  0
   58.2346    1.3603    4.3263 H   0  0  0  0  0  0  0  0  0  0  0  0
   55.0449    6.2890    4.8335 H   0  0  0  0  0  0  0  0  0  0  0  0
   55.7242    3.9694    4.8647 H   0  0  0  0  0  0  0  0  0  0  0  0
   51.2842    1.7429    4.2155 H   0  0  0  0  0  0  0  0  0  0  0  0
   51.9158    1.8232    2.5622 H   0  0  0  0  0  0  0  0  0  0  0  0
   50.5645    2.9212    3.0550 H   0  0  0  0  0  0  0  0  0  0  0  0
   59.1412   -1.1539    3.3218 H   0  0  0  0  0  0  0  0  0  0  0  0
  3  2  1  0
  4  3  1  0
  5  4  1  0
  6  5  1  0
  6  2  1  0
  7  3  1  0
  8  7  1  0
  9  8  1  0
  9  4  1  0
 10  7  2  3
 11 10  1  0
 12 11  2  0
 13 12  1  0
 13  1  1  0
 14 13  2  0
 15 14  1  0
 16 11  1  0
 16 15  2  0
 17 12  1  0
  5 18  1  0
 19 14  1  0
 20 19  3  0
 21  9  1  0
 21 22  1  0
 23 21  1  0
 24 21  1  0
  2 25  1  0
  2 26  1  0
  4 27  1  1
  5 28  1  6
  6 29  1  0
  6 30  1  0
  9 31  1  6
 15 32  1  0
 16 33  1  0
 17 34  1  0
 17 35  1  0
 17 36  1  0
 18 37  1  0
M  END
