
     RDKit          3D

 37 39  0  0  0  0  0  0  0  0999 V2000
   51.7809    4.6596    5.2281 Cl  0  0  0  0  0  0  0  0  0  0  0  0
   55.2590   -2.1687    2.9384 C   0  0  0  0  0  0  0  0  0  0  0  0
   55.8806   -1.2007    3.8307 N   0  0  0  0  0  0  0  0  0  0  0  0
   57.3138   -1.3761    3.9095 C   0  0  1  0  0  0  0  0  0  0  0  0
   57.6545   -2.0602    2.5817 C   0  0  2  0  0  0  0  0  0  0  0  0
   56.4213   -2.9369    2.3061 C   0  0  0  0  0  0  0  0  0  0  0  0
   55.6761    0.1947    3.7326 C   0  0  0  0  0  0  0  0  0  0  0  0
   56.8093    0.9181    3.9897 O   0  0  0  0  0  0  0  0  0  0  0  0
   57.9095    0.0458    4.1188 C   0  0  1  0  0  0  0  0  0  0  0  0
   54.5473    0.7153    3.3814 N   0  0  0  0  0  0  0  0  0  0  0  0
   54.2330    2.1053    3.2803 C   0  0  0  0  0  0  0  0  0  0  0  0
   53.2514    2.6147    4.1470 C   0  0  0  0  0  0  0  0  0  0  0  0
   52.9744    3.9919    4.1270 C   0  0  0  0  0  0  0  0  0  0  0  0
   53.6458    4.8391    3.2281 C   0  0  0  0  0  0  0  0  0  0  0  0
   54.5883    4.3225    2.3458 C   0  0  0  0  0  0  0  0  0  0  0  0
   54.8721    2.9627    2.3584 C   0  0  0  0  0  0  0  0  0  0  0  0
   52.5470    1.7066    5.1350 C   0  0  0  0  0  0  0  0  0  0  0  0
   58.8423   -2.8070    2.6462 O   0  0  0  0  0  0  0  0  0  0  0  0
   53.3580    6.2422    3.1898 C   0  0  0  0  0  0  0  0  0  0  0  0
   53.1346    7.3740    3.1365 N   0  0  0  0  0  0  0  0  0  0  0  0
   58.4706    0.2149    5.5202 C   0  0  0  0  0  0  0  0  0  0  0  0
   57.4367    0.4322    6.3996 F   0  0  0  0  0  0  0  0  0  0  0  0
   59.3495    1.2799    5.5694 F   0  0  0  0  0  0  0  0  0  0  0  0
   59.1477   -0.9266    5.8811 F   0  0  0  0  0  0  0  0  0  0  0  0
   54.5960   -2.8474    3.5160 H   0  0  0  0  0  0  0  0  0  0  0  0
   54.6687   -1.6570    2.1464 H   0  0  0  0  0  0  0  0  0  0  0  0
   57.5427   -2.0575    4.7606 H   0  0  0  0  0  0  0  0  0  0  0  0
   57.7445   -1.3018    1.7722 H   0  0  0  0  0  0  0  0  0  0  0  0
   56.2681   -3.0823    1.2149 H   0  0  0  0  0  0  0  0  0  0  0  0
   56.5224   -3.9287    2.7997 H   0  0  0  0  0  0  0  0  0  0  0  0
   58.6834    0.2915    3.3589 H   0  0  0  0  0  0  0  0  0  0  0  0
   55.0892    4.9663    1.6319 H   0  0  0  0  0  0  0  0  0  0  0  0
   55.5542    2.5943    1.6094 H   0  0  0  0  0  0  0  0  0  0  0  0
   53.1613    1.4879    6.0321 H   0  0  0  0  0  0  0  0  0  0  0  0
   52.3243    0.7236    4.6706 H   0  0  0  0  0  0  0  0  0  0  0  0
   51.5972    2.1805    5.4600 H   0  0  0  0  0  0  0  0  0  0  0  0
   59.2881   -2.6030    3.5094 H   0  0  0  0  0  0  0  0  0  0  0  0
  3  2  1  0
  4  3  1  0
  5  4  1  0
  6  5  1  0
  6  2  1  0
  7  3  1  0
  8  7  1  0
  9  8  1  0
  9  4  1  0
 10  7  2  3
 11 10  1  0
 12 11  2  0
 13 12  1  0
 13  1  1  0
 14 13  2  0
 15 14  1  0
 16 11  1  0
 16 15  2  0
 17 12  1  0
  5 18  1  0
 19 14  1  0
 20 19  3  0
 21  9  1  0
 21 22  1  0
 23 21  1  0
 24 21  1  0
  2 25  1  0
  2 26  1  0
  4 27  1  1
  5 28  1  6
  6 29  1  0
  6 30  1  0
  9 31  1  6
 15 32  1  0
 16 33  1  0
 17 34  1  0
 17 35  1  0
 17 36  1  0
 18 37  1  0
M  END
