
     RDKit          3D

 15 15  0  0  0  0  0  0  0  0999 V2000
   -1.6937  -13.5295  -15.5555 N   0  0  0  0  0  0  0  0  0  0  0  0
   -1.9901  -14.2169  -16.6863 C   0  0  0  0  0  0  0  0  0  0  0  0
   -1.6506  -15.5775  -16.8035 C   0  0  0  0  0  0  0  0  0  0  0  0
   -1.0100  -16.1922  -15.7156 C   0  0  0  0  0  0  0  0  0  0  0  0
   -0.7223  -15.4610  -14.5635 C   0  0  0  0  0  0  0  0  0  0  0  0
   -1.0738  -14.1151  -14.5020 C   0  0  0  0  0  0  0  0  0  0  0  0
   -1.9608  -16.3565  -18.0272 C   0  0  0  0  0  0  0  0  0  0  0  0
   -1.1263  -17.4237  -18.4689 N   0  0  0  0  0  0  0  0  0  0  0  0
   -2.9815  -16.0750  -18.7103 O   0  0  0  0  0  0  0  0  0  0  0  0
   -2.4970  -13.6794  -17.4688 H   0  0  0  0  0  0  0  0  0  0  0  0
   -0.7302  -17.2377  -15.7528 H   0  0  0  0  0  0  0  0  0  0  0  0
   -0.2281  -15.9346  -13.7250 H   0  0  0  0  0  0  0  0  0  0  0  0
   -0.8543  -13.5354  -13.6154 H   0  0  0  0  0  0  0  0  0  0  0  0
   -0.8669  -17.5893  -19.4627 H   0  0  0  0  0  0  0  0  0  0  0  0
   -0.6738  -18.0419  -17.7592 H   0  0  0  0  0  0  0  0  0  0  0  0
  2  1  2  0
  3  2  1  0
  4  3  2  0
  5  4  1  0
  6  5  2  0
  6  1  1  0
  7  3  1  0
  8  7  1  0
  9  7  2  0
  2 10  1  0
  4 11  1  0
  5 12  1  0
  6 13  1  0
  8 14  1  0
  8 15  1  0
M  END
