
     RDKit          3D

 79 83  0  0  0  0  0  0  0  0999 V2000
   16.4419   36.2663   17.7421 C   0  0  0  0  0  0  0  0  0  0  0  0
   15.8064   34.9895   17.9068 O   0  0  0  0  0  0  0  0  0  0  0  0
   16.3922   34.1078   17.0212 C   0  0  0  0  0  0  0  0  0  0  0  0
   17.4050   36.0761   16.6968 O   0  0  0  0  0  0  0  0  0  0  0  0
   17.3446   34.7560   16.3029 C   0  0  0  0  0  0  0  0  0  0  0  0
   18.0972   34.1139   15.3328 C   0  0  0  0  0  0  0  0  0  0  0  0
   17.8529   32.7472   15.1178 C   0  0  0  0  0  0  0  0  0  0  0  0
   16.8662   32.0690   15.8642 C   0  0  0  0  0  0  0  0  0  0  0  0
   16.1171   32.7575   16.8300 C   0  0  0  0  0  0  0  0  0  0  0  0
   18.8194   31.8745   13.9790 S   0  0  0  0  0  0  0  0  0  0  0  0
   18.0130   30.7557   13.4061 O   0  0  0  0  0  0  0  0  0  0  0  0
   19.2599   32.7848   12.8738 O   0  0  0  0  0  0  0  0  0  0  0  0
   20.2189   31.2434   14.7646 N   0  0  0  0  0  0  0  0  0  0  0  0
   20.9031   32.3059   15.5152 C   0  0  0  0  0  0  0  0  0  0  0  0
   22.4071   32.0119   15.6450 C   0  0  1  0  0  0  0  0  0  0  0  0
   23.1000   31.9699   14.2701 C   0  0  0  0  0  0  0  0  0  0  0  0
   23.0829   33.0181   16.5950 C   0  0  0  0  0  0  0  0  0  0  0  0
   19.9013   30.0532   15.5768 C   0  0  0  0  0  0  0  0  0  0  0  0
   20.7448   28.8896   15.0556 C   0  0  1  0  0  0  0  0  0  0  0  0
   22.8790   34.4848   16.2076 C   0  0  0  0  0  0  0  0  0  0  0  0
   20.6862   27.7931   15.9292 O   0  0  0  0  0  0  0  0  0  0  0  0
   20.3537   28.4622   13.6295 C   0  0  1  0  0  0  0  0  0  0  0  0
   21.4063   27.6010   13.1481 N   0  0  0  0  0  0  0  0  0  0  0  0
   22.3280   27.9692   12.1487 C   0  0  0  0  0  0  0  0  0  0  0  0
   22.8677   29.1089   12.1115 O   0  0  0  0  0  0  0  0  0  0  0  0
   22.5971   27.0188   11.1957 O   0  0  0  0  0  0  0  0  0  0  0  0
   23.2478   27.3100    9.9807 C   0  0  1  0  0  0  0  0  0  0  0  0
   24.6791   27.5600   10.3425 C   0  0  0  0  0  0  0  0  0  0  0  0
   25.2427   26.2922   10.5617 O   0  0  0  0  0  0  0  0  0  0  0  0
   24.6279   25.4220    9.6301 C   0  0  1  0  0  0  0  0  0  0  0  0
   24.3241   24.1902   10.2538 O   0  0  0  0  0  0  0  0  0  0  0  0
   22.9217   24.0609   10.3107 C   0  0  0  0  0  0  0  0  0  0  0  0
   22.3058   24.9949    9.2899 C   0  0  0  0  0  0  0  0  0  0  0  0
   23.3589   26.0667    9.1141 C   0  0  1  0  0  0  0  0  0  0  0  0
   19.0275   27.6862   13.5269 C   0  0  0  0  0  0  0  0  0  0  0  0
   19.1299   25.4506   12.3275 C   0  0  0  0  0  0  0  0  0  0  0  0
   19.1106   24.6871   11.1555 C   0  0  0  0  0  0  0  0  0  0  0  0
   18.9775   25.3102    9.9136 C   0  0  0  0  0  0  0  0  0  0  0  0
   18.8702   26.6991    9.8408 C   0  0  0  0  0  0  0  0  0  0  0  0
   18.8814   27.4647   11.0092 C   0  0  0  0  0  0  0  0  0  0  0  0
   18.9991   26.8483   12.2657 C   0  0  0  0  0  0  0  0  0  0  0  0
   16.9520   36.5634   18.6824 H   0  0  0  0  0  0  0  0  0  0  0  0
   15.6948   37.0301   17.4404 H   0  0  0  0  0  0  0  0  0  0  0  0
   18.8484   34.6574   14.7750 H   0  0  0  0  0  0  0  0  0  0  0  0
   16.6802   31.0148   15.7060 H   0  0  0  0  0  0  0  0  0  0  0  0
   15.3568   32.2544   17.4127 H   0  0  0  0  0  0  0  0  0  0  0  0
   20.8075   33.2689   14.9703 H   0  0  0  0  0  0  0  0  0  0  0  0
   20.4383   32.4484   16.5174 H   0  0  0  0  0  0  0  0  0  0  0  0
   22.5372   31.0184   16.1215 H   0  0  0  0  0  0  0  0  0  0  0  0
   23.2511   30.9188   13.9450 H   0  0  0  0  0  0  0  0  0  0  0  0
   22.4681   32.4733   13.5086 H   0  0  0  0  0  0  0  0  0  0  0  0
   24.0819   32.4863   14.2960 H   0  0  0  0  0  0  0  0  0  0  0  0
   22.6864   32.8699   17.6235 H   0  0  0  0  0  0  0  0  0  0  0  0
   24.1739   32.8070   16.6379 H   0  0  0  0  0  0  0  0  0  0  0  0
   18.8259   29.7814   15.5598 H   0  0  0  0  0  0  0  0  0  0  0  0
   20.1483   30.2125   16.6505 H   0  0  0  0  0  0  0  0  0  0  0  0
   21.8034   29.2304   15.0034 H   0  0  0  0  0  0  0  0  0  0  0  0
   21.8526   34.6584   15.8228 H   0  0  0  0  0  0  0  0  0  0  0  0
   23.0052   35.1175   17.1112 H   0  0  0  0  0  0  0  0  0  0  0  0
   23.6252   34.8136   15.4564 H   0  0  0  0  0  0  0  0  0  0  0  0
   20.1015   27.1122   15.5039 H   0  0  0  0  0  0  0  0  0  0  0  0
   20.2850   29.3663   12.9871 H   0  0  0  0  0  0  0  0  0  0  0  0
   21.5321   26.6665   13.6018 H   0  0  0  0  0  0  0  0  0  0  0  0
   22.8070   28.1815    9.4473 H   0  0  0  0  0  0  0  0  0  0  0  0
   24.7673   28.1819   11.2599 H   0  0  0  0  0  0  0  0  0  0  0  0
   25.2139   28.0733    9.5112 H   0  0  0  0  0  0  0  0  0  0  0  0
   25.3303   25.2323    8.7888 H   0  0  0  0  0  0  0  0  0  0  0  0
   22.6355   23.0093   10.0981 H   0  0  0  0  0  0  0  0  0  0  0  0
   22.5727   24.3230   11.3328 H   0  0  0  0  0  0  0  0  0  0  0  0
   22.1747   24.4491    8.3295 H   0  0  0  0  0  0  0  0  0  0  0  0
   21.3175   25.3856    9.6066 H   0  0  0  0  0  0  0  0  0  0  0  0
   23.4620   26.3555    8.0433 H   0  0  0  0  0  0  0  0  0  0  0  0
   18.1641   28.3799   13.5149 H   0  0  0  0  0  0  0  0  0  0  0  0
   18.8968   27.0357   14.4195 H   0  0  0  0  0  0  0  0  0  0  0  0
   19.2430   24.9514   13.2817 H   0  0  0  0  0  0  0  0  0  0  0  0
   19.2013   23.6102   11.2111 H   0  0  0  0  0  0  0  0  0  0  0  0
   18.9671   24.7173    9.0082 H   0  0  0  0  0  0  0  0  0  0  0  0
   18.7771   27.1839    8.8776 H   0  0  0  0  0  0  0  0  0  0  0  0
   18.8013   28.5383   10.9276 H   0  0  0  0  0  0  0  0  0  0  0  0
  2  1  1  0
  3  2  1  0
  4  1  1  0
  5  3  2  0
  5  4  1  0
  6  5  1  0
  7  6  2  0
  8  7  1  0
  9  8  2  0
  9  3  1  0
 10  7  1  0
 11 10  2  0
 12 10  2  0
 10 13  1  0
 14 13  1  0
 15 14  1  0
 15 16  1  0
 17 15  1  0
 18 13  1  0
 19 18  1  0
 20 17  1  0
 19 21  1  0
 22 19  1  0
 23 22  1  0
 24 23  1  0
 25 24  2  0
 26 24  1  0
 27 26  1  0
 28 27  1  0
 29 28  1  0
 30 29  1  0
 31 30  1  0
 32 31  1  0
 33 32  1  0
 34 33  1  0
 34 30  1  0
 34 27  1  0
 22 35  1  0
 37 36  2  0
 38 37  1  0
 39 38  2  0
 40 39  1  0
 41 36  1  0
 41 40  2  0
 41 35  1  0
  1 42  1  0
  1 43  1  0
  6 44  1  0
  8 45  1  0
  9 46  1  0
 14 47  1  0
 14 48  1  0
 15 49  1  1
 16 50  1  0
 16 51  1  0
 16 52  1  0
 17 53  1  0
 17 54  1  0
 18 55  1  0
 18 56  1  0
 19 57  1  6
 20 58  1  0
 20 59  1  0
 20 60  1  0
 21 61  1  0
 22 62  1  6
 23 63  1  0
 27 64  1  6
 28 65  1  0
 28 66  1  0
 30 67  1  6
 32 68  1  0
 32 69  1  0
 33 70  1  0
 33 71  1  0
 34 72  1  6
 35 73  1  0
 35 74  1  0
 36 75  1  0
 37 76  1  0
 38 77  1  0
 39 78  1  0
 40 79  1  0
M  END
