
     RDKit          3D

 35 36  0  0  0  0  0  0  0  0999 V2000
   -1.3668    7.4004   12.5177 N   0  0  0  0  0  0  0  0  0  0  0  0
   -1.4896    8.7306   12.3722 C   0  0  0  0  0  0  0  0  0  0  0  0
   -0.9818    9.5858   13.3479 C   0  0  0  0  0  0  0  0  0  0  0  0
   -0.4057    9.0243   14.4937 C   0  0  0  0  0  0  0  0  0  0  0  0
   -0.3152    7.6722   14.6065 N   0  0  0  0  0  0  0  0  0  0  0  0
   -0.7306    6.8720   13.5872 C   0  0  0  0  0  0  0  0  0  0  0  0
   -2.0415    9.1857   11.3406 O   0  0  0  0  0  0  0  0  0  0  0  0
    0.1874    9.9013   15.5474 C   0  0  0  0  0  0  0  0  0  0  0  0
   -0.7359    5.1014   13.7175 S   0  0  0  0  0  0  0  0  0  0  0  0
   -2.3263    5.2428   12.9963 C   0  0  0  0  0  0  0  0  0  0  0  0
   -3.2244    4.3125   12.3761 C   0  0  0  0  0  0  0  0  0  0  0  0
   -3.4460    4.4546   11.1416 O   0  0  0  0  0  0  0  0  0  0  0  0
   -4.2617    3.9139   13.3069 C   0  0  0  0  0  0  0  0  0  0  0  0
   -5.0091    4.8813   13.9822 C   0  0  0  0  0  0  0  0  0  0  0  0
   -5.8117    4.4954   15.0492 C   0  0  0  0  0  0  0  0  0  0  0  0
   -5.8146    3.1604   15.4765 C   0  0  0  0  0  0  0  0  0  0  0  0
   -4.9987    2.2172   14.8616 C   0  0  0  0  0  0  0  0  0  0  0  0
   -4.2506    2.5828   13.7671 C   0  0  0  0  0  0  0  0  0  0  0  0
   -6.9043    2.6365   16.7253 S   0  0  0  0  0  0  0  0  0  0  0  0
   -7.4649    1.2978   16.3385 O   0  0  0  0  0  0  0  0  0  0  0  0
   -8.0128    3.6403   16.8801 O   0  0  0  0  0  0  0  0  0  0  0  0
   -6.0281    2.4742   18.2092 N   0  0  0  0  0  0  0  0  0  0  0  0
   -1.7396    6.7709   11.7698 H   0  0  0  0  0  0  0  0  0  0  0  0
   -1.0485   10.6608   13.2281 H   0  0  0  0  0  0  0  0  0  0  0  0
    1.1379   10.3497   15.1878 H   0  0  0  0  0  0  0  0  0  0  0  0
    0.4014    9.3093   16.4625 H   0  0  0  0  0  0  0  0  0  0  0  0
   -0.5242   10.7161   15.7962 H   0  0  0  0  0  0  0  0  0  0  0  0
   -2.8269    5.7102   13.8767 H   0  0  0  0  0  0  0  0  0  0  0  0
   -2.5255    6.1783   12.4104 H   0  0  0  0  0  0  0  0  0  0  0  0
   -4.9703    5.9241   13.6918 H   0  0  0  0  0  0  0  0  0  0  0  0
   -6.4226    5.2377   15.5466 H   0  0  0  0  0  0  0  0  0  0  0  0
   -4.9795    1.1889   15.1981 H   0  0  0  0  0  0  0  0  0  0  0  0
   -3.6548    1.8224   13.2769 H   0  0  0  0  0  0  0  0  0  0  0  0
   -5.8504    3.4345   18.5791 H   0  0  0  0  0  0  0  0  0  0  0  0
   -5.1003    2.0513   17.9816 H   0  0  0  0  0  0  0  0  0  0  0  0
  2  1  1  0
  3  2  1  0
  4  3  2  0
  5  4  1  0
  6  5  2  0
  6  1  1  0
  7  2  2  0
  8  4  1  0
  9  6  1  0
 10  9  1  0
 11 10  1  0
 12 11  2  0
 13 11  1  0
 14 13  2  0
 15 14  1  0
 16 15  2  0
 17 16  1  0
 18 17  2  0
 18 13  1  0
 19 16  1  0
 20 19  2  0
 21 19  2  0
 19 22  1  0
  1 23  1  0
  3 24  1  0
  8 25  1  0
  8 26  1  0
  8 27  1  0
 10 28  1  0
 10 29  1  0
 14 30  1  0
 15 31  1  0
 17 32  1  0
 18 33  1  0
 22 34  1  0
 22 35  1  0
M  END
