
     RDKit          3D

 35 36  0  0  0  0  0  0  0  0999 V2000
   -1.6297    7.5830   10.6964 N   0  0  0  0  0  0  0  0  0  0  0  0
   -1.7525    8.9132   10.5508 C   0  0  0  0  0  0  0  0  0  0  0  0
   -1.2447    9.7684   11.5265 C   0  0  0  0  0  0  0  0  0  0  0  0
   -0.6687    9.2069   12.6723 C   0  0  0  0  0  0  0  0  0  0  0  0
   -0.5781    7.8548   12.7852 N   0  0  0  0  0  0  0  0  0  0  0  0
   -0.9936    7.0546   11.7658 C   0  0  0  0  0  0  0  0  0  0  0  0
   -2.3045    9.3683    9.5193 O   0  0  0  0  0  0  0  0  0  0  0  0
   -0.0755   10.0839   13.7261 C   0  0  0  0  0  0  0  0  0  0  0  0
   -0.9988    5.2840   11.8961 S   0  0  0  0  0  0  0  0  0  0  0  0
   -2.7269    5.4934   12.0945 C   0  0  0  0  0  0  0  0  0  0  0  0
   -3.8721    4.7049   11.7431 C   0  0  0  0  0  0  0  0  0  0  0  0
   -4.6478    5.1683   10.8618 O   0  0  0  0  0  0  0  0  0  0  0  0
   -4.3608    3.9800   12.8994 C   0  0  0  0  0  0  0  0  0  0  0  0
   -4.5529    2.5982   12.8326 C   0  0  0  0  0  0  0  0  0  0  0  0
   -5.2565    1.9615   13.8481 C   0  0  0  0  0  0  0  0  0  0  0  0
   -5.8186    2.7137   14.8888 C   0  0  0  0  0  0  0  0  0  0  0  0
   -5.7053    4.0995   14.9037 C   0  0  0  0  0  0  0  0  0  0  0  0
   -4.9580    4.7261   13.9341 C   0  0  0  0  0  0  0  0  0  0  0  0
   -6.5922    1.9234   16.2299 S   0  0  0  0  0  0  0  0  0  0  0  0
   -5.9419    0.5849   16.4343 O   0  0  0  0  0  0  0  0  0  0  0  0
   -8.0567    1.7516   15.9367 O   0  0  0  0  0  0  0  0  0  0  0  0
   -6.3721    2.8814   17.6547 N   0  0  0  0  0  0  0  0  0  0  0  0
   -2.0025    6.9535    9.9484 H   0  0  0  0  0  0  0  0  0  0  0  0
   -1.3114   10.8434   11.4067 H   0  0  0  0  0  0  0  0  0  0  0  0
   -0.2773    9.6668   14.7355 H   0  0  0  0  0  0  0  0  0  0  0  0
   -0.5174   11.1014   13.6708 H   0  0  0  0  0  0  0  0  0  0  0  0
    1.0224   10.1527   13.5772 H   0  0  0  0  0  0  0  0  0  0  0  0
   -2.7123    5.6543   13.1981 H   0  0  0  0  0  0  0  0  0  0  0  0
   -3.1195    6.5364   11.9668 H   0  0  0  0  0  0  0  0  0  0  0  0
   -4.1677    2.0176   12.0033 H   0  0  0  0  0  0  0  0  0  0  0  0
   -5.3702    0.8856   13.8181 H   0  0  0  0  0  0  0  0  0  0  0  0
   -6.1535    4.6896   15.6922 H   0  0  0  0  0  0  0  0  0  0  0  0
   -4.8472    5.8022   13.9887 H   0  0  0  0  0  0  0  0  0  0  0  0
   -7.0178    3.6996   17.5893 H   0  0  0  0  0  0  0  0  0  0  0  0
   -5.3958    3.2526   17.6360 H   0  0  0  0  0  0  0  0  0  0  0  0
  2  1  1  0
  3  2  1  0
  4  3  2  0
  5  4  1  0
  6  5  2  0
  6  1  1  0
  7  2  2  0
  8  4  1  0
  9  6  1  0
 10  9  1  0
 11 10  1  0
 12 11  2  0
 13 11  1  0
 14 13  2  0
 15 14  1  0
 16 15  2  0
 17 16  1  0
 18 17  2  0
 18 13  1  0
 19 16  1  0
 20 19  2  0
 21 19  2  0
 19 22  1  0
  1 23  1  0
  3 24  1  0
  8 25  1  0
  8 26  1  0
  8 27  1  0
 10 28  1  0
 10 29  1  0
 14 30  1  0
 15 31  1  0
 17 32  1  0
 18 33  1  0
 22 34  1  0
 22 35  1  0
M  END
