
     RDKit          3D

 29 30  0  0  0  0  0  0  0  0999 V2000
   35.4038   97.4289   97.7273 C   0  0  0  0  0  0  0  0  0  0  0  0
   34.6791   97.2056   96.5471 O   0  0  0  0  0  0  0  0  0  0  0  0
   36.8928   97.1575   97.4851 C   0  0  1  0  0  0  0  0  0  0  0  0
   37.0753   95.7983   97.1218 O   0  0  0  0  0  0  0  0  0  0  0  0
   37.4517   98.0527   96.3752 C   0  0  1  0  0  0  0  0  0  0  0  0
   38.7113   98.5543   96.7566 O   0  0  0  0  0  0  0  0  0  0  0  0
   37.5819   97.0891   95.2099 C   0  0  0  0  0  0  0  0  0  0  0  0
   37.8125   95.7629   95.9177 C   0  0  2  0  0  0  0  0  0  0  0  0
   37.4485   94.5662   95.1132 N   0  0  0  0  0  0  0  0  0  0  0  0
   38.2573   93.4507   95.0883 C   0  0  0  0  0  0  0  0  0  0  0  0
   39.3930   93.4646   95.6283 O   0  0  0  0  0  0  0  0  0  0  0  0
   37.8486   92.3082   94.4828 N   0  0  0  0  0  0  0  0  0  0  0  0
   36.6510   92.2431   93.8669 C   0  0  0  0  0  0  0  0  0  0  0  0
   36.2467   91.0314   93.2475 N   0  0  0  0  0  0  0  0  0  0  0  0
   35.8305   93.3615   93.8346 C   0  0  0  0  0  0  0  0  0  0  0  0
   36.2477   94.5229   94.4671 C   0  0  0  0  0  0  0  0  0  0  0  0
   35.0347   96.7518   98.5298 H   0  0  0  0  0  0  0  0  0  0  0  0
   35.2669   98.4817   98.0623 H   0  0  0  0  0  0  0  0  0  0  0  0
   35.0533   96.3781   96.1475 H   0  0  0  0  0  0  0  0  0  0  0  0
   37.4332   97.3453   98.4397 H   0  0  0  0  0  0  0  0  0  0  0  0
   36.7691   98.8972   96.1182 H   0  0  0  0  0  0  0  0  0  0  0  0
   38.5895   99.5245   96.9282 H   0  0  0  0  0  0  0  0  0  0  0  0
   36.6338   97.0575   94.6295 H   0  0  0  0  0  0  0  0  0  0  0  0
   38.4266   97.3476   94.5350 H   0  0  0  0  0  0  0  0  0  0  0  0
   38.8882   95.7079   96.2041 H   0  0  0  0  0  0  0  0  0  0  0  0
   36.2419   90.9342   92.2075 H   0  0  0  0  0  0  0  0  0  0  0  0
   35.9465   90.2175   93.8288 H   0  0  0  0  0  0  0  0  0  0  0  0
   34.8699   93.3310   93.3357 H   0  0  0  0  0  0  0  0  0  0  0  0
   35.5929   95.3856   94.4550 H   0  0  0  0  0  0  0  0  0  0  0  0
  2  1  1  0
  3  1  1  0
  4  3  1  0
  5  3  1  0
  5  6  1  0
  7  5  1  0
  8  7  1  0
  8  4  1  0
  8  9  1  0
 10  9  1  0
 11 10  2  0
 12 10  1  0
 13 12  2  0
 14 13  1  0
 15 13  1  0
 16 15  2  0
 16  9  1  0
  1 17  1  0
  1 18  1  0
  2 19  1  0
  3 20  1  1
  5 21  1  6
  6 22  1  0
  7 23  1  0
  7 24  1  0
  8 25  1  1
 14 26  1  0
 14 27  1  0
 15 28  1  0
 16 29  1  0
M  END
