
     RDKit          3D

 24 23  0  0  0  0  0  0  0  0999 V2000
  -38.6779   -1.9333   16.5245 P   0  0  2  0  0  0  0  0  0  0  0  0
  -39.4196    0.6721   17.3816 P   0  0  0  0  0  0  0  0  0  0  0  0
  -35.3579    0.2763   15.5801 C   0  0  0  0  0  0  0  0  0  0  0  0
  -40.0693   -2.3222   16.9549 O   0  0  0  0  0  0  0  0  0  0  0  0
  -37.5260   -2.6325   17.5261 O   0  0  0  0  0  0  0  0  0  0  0  0
  -38.2688   -0.3185   16.6938 O   0  0  0  0  0  0  0  0  0  0  0  0
  -38.8988    1.1483   18.7128 O   0  0  0  0  0  0  0  0  0  0  0  0
  -39.4248    1.9272   16.2801 O   0  0  0  0  0  0  0  0  0  0  0  0
  -40.9747    0.0610   17.5156 O   0  0  0  0  0  0  0  0  0  0  0  0
  -36.0871   -1.9942   15.3523 C   0  0  0  0  0  0  0  0  0  0  0  0
  -37.1562   -2.8627   14.6912 C   0  0  0  0  0  0  0  0  0  0  0  0
  -38.4630   -2.3963   14.9123 O   0  0  0  0  0  0  0  0  0  0  0  0
  -36.0985   -0.5797   14.8863 C   0  0  0  0  0  0  0  0  0  0  0  0
  -35.2079    1.5808   15.1516 O   0  0  0  0  0  0  0  0  0  0  0  0
  -34.8454   -0.0301   16.4849 H   0  0  0  0  0  0  0  0  0  0  0  0
  -37.9290   -2.6131   18.4308 H   0  0  0  0  0  0  0  0  0  0  0  0
  -40.2979    1.8610   15.8167 H   0  0  0  0  0  0  0  0  0  0  0  0
  -41.2186   -0.2097   16.5947 H   0  0  0  0  0  0  0  0  0  0  0  0
  -35.1110   -2.4570   15.0806 H   0  0  0  0  0  0  0  0  0  0  0  0
  -36.1381   -2.0348   16.4584 H   0  0  0  0  0  0  0  0  0  0  0  0
  -36.9773   -2.8566   13.5945 H   0  0  0  0  0  0  0  0  0  0  0  0
  -37.0470   -3.9247   15.0045 H   0  0  0  0  0  0  0  0  0  0  0  0
  -36.5976   -0.2835   13.9712 H   0  0  0  0  0  0  0  0  0  0  0  0
  -35.5189    1.8843   14.2354 H   0  0  0  0  0  0  0  0  0  0  0  0
  4  1  2  0
  1  5  1  1
  6  2  1  0
  6  1  1  0
  7  2  2  0
  8  2  1  0
  9  2  1  0
 11 10  1  0
 12  1  1  0
 12 11  1  0
 13 10  1  0
 13  3  2  3
 14  3  1  0
  3 15  1  0
  5 16  1  0
  8 17  1  0
  9 18  1  0
 10 19  1  0
 10 20  1  0
 11 21  1  0
 11 22  1  0
 13 23  1  0
 14 24  1  0
M  END
