
     RDKit          3D

 24 23  0  0  0  0  0  0  0  0999 V2000
  -38.1678   -1.9328   16.5200 P   0  0  2  0  0  0  0  0  0  0  0  0
  -38.5754    0.8781   16.5955 P   0  0  0  0  0  0  0  0  0  0  0  0
  -34.4125   -0.0624   14.6223 C   0  0  0  0  0  0  0  0  0  0  0  0
  -39.6518   -2.1695   16.6387 O   0  0  0  0  0  0  0  0  0  0  0  0
  -37.3205   -2.9036   17.5963 O   0  0  0  0  0  0  0  0  0  0  0  0
  -37.6130   -0.4245   16.9901 O   0  0  0  0  0  0  0  0  0  0  0  0
  -38.8225    1.6797   17.8469 O   0  0  0  0  0  0  0  0  0  0  0  0
  -37.5469    1.7053   15.5724 O   0  0  0  0  0  0  0  0  0  0  0  0
  -40.0055    0.5552   15.7828 O   0  0  0  0  0  0  0  0  0  0  0  0
  -35.4250   -1.9071   15.7674 C   0  0  0  0  0  0  0  0  0  0  0  0
  -36.3753   -2.6838   14.8575 C   0  0  0  0  0  0  0  0  0  0  0  0
  -37.7016   -2.2241   14.9207 O   0  0  0  0  0  0  0  0  0  0  0  0
  -35.3658   -0.4508   15.4606 C   0  0  0  0  0  0  0  0  0  0  0  0
  -34.3560    1.2457   14.1828 O   0  0  0  0  0  0  0  0  0  0  0  0
  -33.6699   -0.7613   14.2543 H   0  0  0  0  0  0  0  0  0  0  0  0
  -37.6965   -2.6861   18.4865 H   0  0  0  0  0  0  0  0  0  0  0  0
  -38.1166    2.0036   14.8187 H   0  0  0  0  0  0  0  0  0  0  0  0
  -39.7294    0.0401   14.9831 H   0  0  0  0  0  0  0  0  0  0  0  0
  -34.4174   -2.3528   15.6032 H   0  0  0  0  0  0  0  0  0  0  0  0
  -35.6489   -2.0648   16.8410 H   0  0  0  0  0  0  0  0  0  0  0  0
  -36.0265   -2.5632   13.8094 H   0  0  0  0  0  0  0  0  0  0  0  0
  -36.3146   -3.7746   15.0677 H   0  0  0  0  0  0  0  0  0  0  0  0
  -36.1215    0.2394   15.8168 H   0  0  0  0  0  0  0  0  0  0  0  0
  -34.3759    1.4824   13.1970 H   0  0  0  0  0  0  0  0  0  0  0  0
  4  1  2  0
  1  5  1  1
  6  2  1  0
  6  1  1  0
  7  2  2  0
  8  2  1  0
  9  2  1  0
 11 10  1  0
 12  1  1  0
 12 11  1  0
 13 10  1  0
 13  3  2  3
 14  3  1  0
  3 15  1  0
  5 16  1  0
  8 17  1  0
  9 18  1  0
 10 19  1  0
 10 20  1  0
 11 21  1  0
 11 22  1  0
 13 23  1  0
 14 24  1  0
M  END
