
     RDKit          3D

 40 42  0  0  0  0  0  0  0  0999 V2000
   11.6809   28.0162   56.7894 Cl  0  0  0  0  0  0  0  0  0  0  0  0
   16.6540   25.8010   56.0356 Cl  0  0  0  0  0  0  0  0  0  0  0  0
   13.1602   27.3046   57.4088 C   0  0  0  0  0  0  0  0  0  0  0  0
   13.3095   27.1161   58.7846 C   0  0  0  0  0  0  0  0  0  0  0  0
   14.4377   26.5414   59.2756 N   0  0  0  0  0  0  0  0  0  0  0  0
   15.4453   26.1367   58.4601 C   0  0  0  0  0  0  0  0  0  0  0  0
   15.3377   26.3033   57.0793 C   0  0  0  0  0  0  0  0  0  0  0  0
   14.1858   26.8909   56.5472 C   0  0  0  0  0  0  0  0  0  0  0  0
   14.0368   26.9893   55.1333 N   0  0  0  0  0  0  0  0  0  0  0  0
   15.0991   27.4409   54.2986 C   0  0  0  0  0  0  0  0  0  0  0  0
   14.8632   27.8052   52.8891 C   0  0  0  0  0  0  0  0  0  0  0  0
   15.3636   27.0661   51.8024 C   0  0  0  0  0  0  0  0  0  0  0  0
   15.1058   27.4799   50.4966 C   0  0  0  0  0  0  0  0  0  0  0  0
   14.3397   28.6376   50.2553 C   0  0  0  0  0  0  0  0  0  0  0  0
   13.8360   29.3640   51.3323 C   0  0  0  0  0  0  0  0  0  0  0  0
   14.1013   28.9398   52.6357 C   0  0  0  0  0  0  0  0  0  0  0  0
   14.0725   29.1086   48.9681 O   0  0  0  0  0  0  0  0  0  0  0  0
   13.9867   28.2690   47.8296 C   0  0  0  0  0  0  0  0  0  0  0  0
   13.0921   30.5250   51.1005 O   0  0  0  0  0  0  0  0  0  0  0  0
   12.6675   31.3708   52.1707 C   0  0  0  0  0  0  0  0  0  0  0  0
   13.4332   31.0354   53.4369 C   0  0  0  0  0  0  0  0  0  0  0  0
   13.5918   32.1321   54.4754 C   0  0  0  0  0  0  0  0  0  0  0  0
   14.7882   31.6817   53.6442 C   0  0  0  0  0  0  0  0  0  0  0  0
   16.2664   27.5218   54.7732 O   0  0  0  0  0  0  0  0  0  0  0  0
   15.1279   27.4972   47.7378 F   0  0  0  0  0  0  0  0  0  0  0  0
   12.8758   27.4604   47.9308 F   0  0  0  0  0  0  0  0  0  0  0  0
   12.5265   27.4223   59.4658 H   0  0  0  0  0  0  0  0  0  0  0  0
   16.3312   25.6868   58.8886 H   0  0  0  0  0  0  0  0  0  0  0  0
   13.2005   26.5221   54.7262 H   0  0  0  0  0  0  0  0  0  0  0  0
   15.9505   26.1713   51.9293 H   0  0  0  0  0  0  0  0  0  0  0  0
   15.5134   26.8917   49.6879 H   0  0  0  0  0  0  0  0  0  0  0  0
   13.7153   29.4985   53.4738 H   0  0  0  0  0  0  0  0  0  0  0  0
   13.8958   28.8968   46.9197 H   0  0  0  0  0  0  0  0  0  0  0  0
   12.8420   32.4357   51.8983 H   0  0  0  0  0  0  0  0  0  0  0  0
   11.5861   31.2109   52.3721 H   0  0  0  0  0  0  0  0  0  0  0  0
   13.3370   30.0112   53.8569 H   0  0  0  0  0  0  0  0  0  0  0  0
   13.1970   33.1313   54.1926 H   0  0  0  0  0  0  0  0  0  0  0  0
   13.6133   31.7736   55.5262 H   0  0  0  0  0  0  0  0  0  0  0  0
   15.5164   31.0558   54.2022 H   0  0  0  0  0  0  0  0  0  0  0  0
   15.0993   32.4105   52.8655 H   0  0  0  0  0  0  0  0  0  0  0  0
  3  1  1  0
  4  3  2  0
  5  4  1  0
  6  5  2  0
  7  6  1  0
  7  2  1  0
  8  7  2  0
  8  3  1  0
  9  8  1  0
 10  9  1  0
 11 10  1  0
 12 11  2  0
 13 12  1  0
 14 13  2  0
 15 14  1  0
 16 15  2  0
 16 11  1  0
 17 14  1  0
 18 17  1  0
 19 15  1  0
 20 19  1  0
 21 20  1  0
 22 21  1  0
 23 22  1  0
 23 21  1  0
 24 10  2  0
 18 25  1  0
 26 18  1  0
  4 27  1  0
  6 28  1  0
  9 29  1  0
 12 30  1  0
 13 31  1  0
 16 32  1  0
 18 33  1  0
 20 34  1  0
 20 35  1  0
 21 36  1  0
 22 37  1  0
 22 38  1  0
 23 39  1  0
 23 40  1  0
M  END
