
     RDKit          3D

 40 42  0  0  0  0  0  0  0  0999 V2000
   19.7818   18.4329   93.1209 Cl  0  0  0  0  0  0  0  0  0  0  0  0
   21.2590   23.7414   93.2463 Cl  0  0  0  0  0  0  0  0  0  0  0  0
   20.0685   19.9762   92.3276 C   0  0  0  0  0  0  0  0  0  0  0  0
   19.8340   20.0946   90.9585 C   0  0  0  0  0  0  0  0  0  0  0  0
   20.0139   21.2895   90.3382 N   0  0  0  0  0  0  0  0  0  0  0  0
   20.4296   22.3933   91.0127 C   0  0  0  0  0  0  0  0  0  0  0  0
   20.6808   22.3236   92.3809 C   0  0  0  0  0  0  0  0  0  0  0  0
   20.4923   21.1079   93.0414 C   0  0  0  0  0  0  0  0  0  0  0  0
   20.7180   21.0419   94.4380 N   0  0  0  0  0  0  0  0  0  0  0  0
   21.8415   20.3342   94.9450 C   0  0  0  0  0  0  0  0  0  0  0  0
   22.2075   20.4094   96.3568 C   0  0  0  0  0  0  0  0  0  0  0  0
   21.8007   21.4657   97.1633 C   0  0  0  0  0  0  0  0  0  0  0  0
   22.0762   21.4347   98.4987 C   0  0  0  0  0  0  0  0  0  0  0  0
   22.9019   20.4339   99.0617 C   0  0  0  0  0  0  0  0  0  0  0  0
   23.2776   19.3485   98.2712 C   0  0  0  0  0  0  0  0  0  0  0  0
   22.9160   19.3507   96.9189 C   0  0  0  0  0  0  0  0  0  0  0  0
   23.3510   20.5430  100.3728 O   0  0  0  0  0  0  0  0  0  0  0  0
   23.8379   19.3700  101.0088 C   0  0  0  0  0  0  0  0  0  0  0  0
   23.9932   18.2739   98.8101 O   0  0  0  0  0  0  0  0  0  0  0  0
   24.4030   17.1751   97.9884 C   0  0  0  0  0  0  0  0  0  0  0  0
   25.1691   16.1670   98.8198 C   0  0  0  0  0  0  0  0  0  0  0  0
   25.2362   16.3931  100.3207 C   0  0  0  0  0  0  0  0  0  0  0  0
   26.4725   16.6021   99.4503 C   0  0  0  0  0  0  0  0  0  0  0  0
   22.5312   19.6265   94.1623 O   0  0  0  0  0  0  0  0  0  0  0  0
   23.0390   18.9188  101.9884 F   0  0  0  0  0  0  0  0  0  0  0  0
   25.1954   19.3521  101.0852 F   0  0  0  0  0  0  0  0  0  0  0  0
   19.4986   19.2403   90.3853 H   0  0  0  0  0  0  0  0  0  0  0  0
   20.5689   23.3243   90.4793 H   0  0  0  0  0  0  0  0  0  0  0  0
   20.2060   21.7391   95.0159 H   0  0  0  0  0  0  0  0  0  0  0  0
   21.1649   22.2634   96.8178 H   0  0  0  0  0  0  0  0  0  0  0  0
   21.4889   22.1313   99.0784 H   0  0  0  0  0  0  0  0  0  0  0  0
   23.1926   18.5286   96.2777 H   0  0  0  0  0  0  0  0  0  0  0  0
   23.6685   18.4521  100.4418 H   0  0  0  0  0  0  0  0  0  0  0  0
   23.5130   16.6899   97.5287 H   0  0  0  0  0  0  0  0  0  0  0  0
   25.0849   17.5392   97.1894 H   0  0  0  0  0  0  0  0  0  0  0  0
   25.1198   15.0962   98.5266 H   0  0  0  0  0  0  0  0  0  0  0  0
   24.7761   17.3361  100.6859 H   0  0  0  0  0  0  0  0  0  0  0  0
   25.2631   15.4635  100.9278 H   0  0  0  0  0  0  0  0  0  0  0  0
   27.2306   15.7961   99.5452 H   0  0  0  0  0  0  0  0  0  0  0  0
   26.7516   17.6686   99.3131 H   0  0  0  0  0  0  0  0  0  0  0  0
  3  1  1  0
  4  3  2  0
  5  4  1  0
  6  5  2  0
  7  6  1  0
  7  2  1  0
  8  3  1  0
  8  7  2  0
  9  8  1  0
 10  9  1  0
 11 10  1  0
 12 11  2  0
 13 12  1  0
 14 13  2  0
 15 14  1  0
 16 11  1  0
 16 15  2  0
 17 14  1  0
 18 17  1  0
 19 15  1  0
 20 19  1  0
 21 20  1  0
 22 21  1  0
 23 22  1  0
 23 21  1  0
 24 10  2  0
 18 25  1  0
 26 18  1  0
  4 27  1  0
  6 28  1  0
  9 29  1  0
 12 30  1  0
 13 31  1  0
 16 32  1  0
 18 33  1  0
 20 34  1  0
 20 35  1  0
 21 36  1  0
 22 37  1  0
 22 38  1  0
 23 39  1  0
 23 40  1  0
M  END
