
     RDKit          3D

 47 49  0  0  0  0  0  0  0  0999 V2000
  -12.4017   -3.9339   14.8690 C   0  0  0  0  0  0  0  0  0  0  0  0
  -12.3079   -2.9807   13.8543 O   0  0  0  0  0  0  0  0  0  0  0  0
  -13.7931   -3.8434   15.5098 C   0  0  1  0  0  0  0  0  0  0  0  0
  -14.6417   -4.7961   14.9225 O   0  0  0  0  0  0  0  0  0  0  0  0
  -13.6878   -4.0418   17.0325 C   0  0  1  0  0  0  0  0  0  0  0  0
  -12.7854   -3.1024   17.5612 O   0  0  0  0  0  0  0  0  0  0  0  0
  -15.0330   -3.9211   17.7788 C   0  0  1  0  0  0  0  0  0  0  0  0
  -16.0619   -4.6189   17.1199 O   0  0  0  0  0  0  0  0  0  0  0  0
  -14.8399   -4.4398   19.2233 C   0  0  0  0  0  0  0  0  0  0  0  0
  -15.9712   -2.0790   20.0850 N   0  0  0  0  0  0  0  0  0  0  0  0
  -16.4470   -0.8759   20.4843 C   0  0  0  0  0  0  0  0  0  0  0  0
  -15.8077    0.1676   20.1899 O   0  0  0  0  0  0  0  0  0  0  0  0
  -17.6025   -0.7925   21.1981 N   0  0  0  0  0  0  0  0  0  0  0  0
  -18.3127   -1.9058   21.5389 C   0  0  0  0  0  0  0  0  0  0  0  0
  -17.8469   -3.1793   21.1603 C   0  0  0  0  0  0  0  0  0  0  0  0
  -19.3834   -1.7816   22.1900 O   0  0  0  0  0  0  0  0  0  0  0  0
  -17.9872   -5.5466   21.0828 C   0  0  0  0  0  0  0  0  0  0  0  0
  -18.4809   -4.3367   21.4817 N   0  0  0  0  0  0  0  0  0  0  0  0
  -18.6671   -6.7206   21.4427 C   0  0  0  0  0  0  0  0  0  0  0  0
  -18.1846   -7.9850   21.0569 C   0  0  0  0  0  0  0  0  0  0  0  0
  -18.9220   -9.2263   21.4950 C   0  0  0  0  0  0  0  0  0  0  0  0
  -16.9950   -8.0749   20.2943 C   0  0  0  0  0  0  0  0  0  0  0  0
  -16.4273   -9.4117   19.8702 C   0  0  0  0  0  0  0  0  0  0  0  0
  -16.3314   -6.9021   19.9076 C   0  0  0  0  0  0  0  0  0  0  0  0
  -16.7874   -5.6202   20.3094 C   0  0  0  0  0  0  0  0  0  0  0  0
  -16.6105   -3.2417   20.3784 C   0  0  0  0  0  0  0  0  0  0  0  0
  -16.1100   -4.4541   19.9778 N   0  0  0  0  0  0  0  0  0  0  0  0
  -11.6016   -3.7242   15.6123 H   0  0  0  0  0  0  0  0  0  0  0  0
  -12.2301   -4.9538   14.4560 H   0  0  0  0  0  0  0  0  0  0  0  0
  -13.0587   -3.1635   13.2312 H   0  0  0  0  0  0  0  0  0  0  0  0
  -14.2147   -2.8328   15.3124 H   0  0  0  0  0  0  0  0  0  0  0  0
  -15.4281   -4.3181   14.5485 H   0  0  0  0  0  0  0  0  0  0  0  0
  -13.2676   -5.0551   17.2229 H   0  0  0  0  0  0  0  0  0  0  0  0
  -12.0455   -3.6007   17.9994 H   0  0  0  0  0  0  0  0  0  0  0  0
  -15.3228   -2.8494   17.8128 H   0  0  0  0  0  0  0  0  0  0  0  0
  -15.7897   -5.5720   17.0674 H   0  0  0  0  0  0  0  0  0  0  0  0
  -14.3120   -5.4092   19.2395 H   0  0  0  0  0  0  0  0  0  0  0  0
  -14.1167   -3.7857   19.7585 H   0  0  0  0  0  0  0  0  0  0  0  0
  -17.9546    0.1479   21.4906 H   0  0  0  0  0  0  0  0  0  0  0  0
  -19.5719   -6.6438   22.0344 H   0  0  0  0  0  0  0  0  0  0  0  0
  -19.5098   -9.0182   22.4133 H   0  0  0  0  0  0  0  0  0  0  0  0
  -19.6058   -9.5595   20.6866 H   0  0  0  0  0  0  0  0  0  0  0  0
  -18.2211  -10.0572   21.7236 H   0  0  0  0  0  0  0  0  0  0  0  0
  -15.7979   -9.3258   18.9590 H   0  0  0  0  0  0  0  0  0  0  0  0
  -15.7905   -9.8293   20.6778 H   0  0  0  0  0  0  0  0  0  0  0  0
  -17.2572  -10.1168   19.6556 H   0  0  0  0  0  0  0  0  0  0  0  0
  -15.4768   -7.0273   19.2672 H   0  0  0  0  0  0  0  0  0  0  0  0
  2  1  1  0
  3  1  1  0
  3  4  1  0
  5  3  1  0
  5  6  1  0
  7  5  1  0
  7  8  1  0
  9  7  1  0
 11 10  1  0
 12 11  2  0
 13 11  1  0
 14 13  1  0
 15 14  1  0
 16 14  2  0
 18 17  1  0
 18 15  2  0
 19 17  2  0
 20 19  1  0
 21 20  1  0
 22 20  2  0
 23 22  1  0
 24 22  1  0
 25 24  2  0
 25 17  1  0
 26 15  1  0
 26 10  2  0
 27 25  1  0
 27 26  1  0
 27  9  1  0
  1 28  1  0
  1 29  1  0
  2 30  1  0
  3 31  1  1
  4 32  1  0
  5 33  1  6
  6 34  1  0
  7 35  1  1
  8 36  1  0
  9 37  1  0
  9 38  1  0
 13 39  1  0
 19 40  1  0
 21 41  1  0
 21 42  1  0
 21 43  1  0
 23 44  1  0
 23 45  1  0
 23 46  1  0
 24 47  1  0
M  END
