
     RDKit          3D

 16 15  0  0  0  0  0  0  0  0999 V2000
    6.0926   13.9730   54.5662 C   0  0  0  0  0  0  0  0  0  0  0  0
    4.8898   14.3457   54.4969 O   0  0  0  0  0  0  0  0  0  0  0  0
    6.9117   14.3168   55.7214 C   0  0  0  0  0  0  0  0  0  0  0  0
    6.6665   13.2303   53.5502 O   0  0  0  0  0  0  0  0  0  0  0  0
    6.3505   15.2033   56.8003 C   0  0  0  0  0  0  0  0  0  0  0  0
    9.5546   16.9371   57.1408 O   0  0  0  0  0  0  0  0  0  0  0  0
    7.4489   15.7710   57.6958 C   0  0  0  0  0  0  0  0  0  0  0  0
    7.5582   17.9055   56.5794 O   0  0  0  0  0  0  0  0  0  0  0  0
    8.1740   16.9305   57.0914 C   0  0  0  0  0  0  0  0  0  0  0  0
    8.0741   13.8325   55.7994 O   0  0  0  0  0  0  0  0  0  0  0  0
    7.5806   13.4698   53.1852 H   0  0  0  0  0  0  0  0  0  0  0  0
    5.8026   16.0480   56.3269 H   0  0  0  0  0  0  0  0  0  0  0  0
    5.6334   14.6159   57.4135 H   0  0  0  0  0  0  0  0  0  0  0  0
   10.0852   17.7096   56.7561 H   0  0  0  0  0  0  0  0  0  0  0  0
    8.1966   14.9755   57.9088 H   0  0  0  0  0  0  0  0  0  0  0  0
    7.0070   16.0979   58.6618 H   0  0  0  0  0  0  0  0  0  0  0  0
  2  1  2  0
  3  1  1  0
  4  1  1  0
  5  3  1  0
  7  5  1  0
  9  8  2  0
  9  7  1  0
  9  6  1  0
 10  3  2  0
  4 11  1  0
  5 12  1  0
  5 13  1  0
  6 14  1  0
  7 15  1  0
  7 16  1  0
M  END
