
     RDKit          3D

 18 17  0  0  0  0  0  0  0  0999 V2000
   16.9132   76.0159    7.0582 P   0  0  0  0  0  5  0  0  0  0  0  0
   16.9092   77.3531    8.1061 O   0  0  0  0  0  0  0  0  0  0  0  0
   15.9936   74.9310    7.5635 O   0  0  0  0  0  0  0  0  0  0  0  0
   16.4661   76.5030    5.5168 O   0  0  0  0  0  0  0  0  0  0  0  0
   18.4755   75.4158    6.9783 O   0  0  0  0  0  0  0  0  0  0  0  0
   14.6706   77.2458    8.8965 C   0  0  0  0  0  0  0  0  0  0  0  0
   15.0696   76.5448    9.8665 O   0  0  0  0  0  0  0  0  0  0  0  0
   15.6627   78.0276    8.0920 C   0  0  1  0  0  0  0  0  0  0  0  0
   13.3186   77.3239    8.5919 O   0  0  0  0  0  0  0  0  0  0  0  0
   15.8603   79.4125    8.7376 C   0  0  0  0  0  0  0  0  0  0  0  0
   15.2103   79.5233    9.9788 O   0  0  0  0  0  0  0  0  0  0  0  0
   16.2559   77.4676    5.5963 H   0  0  0  0  0  0  0  0  0  0  0  0
   18.3661   74.4489    6.7935 H   0  0  0  0  0  0  0  0  0  0  0  0
   15.2667   78.1919    7.0637 H   0  0  0  0  0  0  0  0  0  0  0  0
   12.6933   76.5566    8.8068 H   0  0  0  0  0  0  0  0  0  0  0  0
   16.9450   79.6036    8.8886 H   0  0  0  0  0  0  0  0  0  0  0  0
   15.4837   80.1991    8.0448 H   0  0  0  0  0  0  0  0  0  0  0  0
   14.4637   78.8693    9.9654 H   0  0  0  0  0  0  0  0  0  0  0  0
  2  1  1  0
  3  1  2  0
  4  1  1  0
  5  1  1  0
  7  6  2  0
  8  6  1  0
  8  2  1  0
  9  6  1  0
  8 10  1  0
 11 10  1  0
  4 12  1  0
  5 13  1  0
  8 14  1  6
  9 15  1  0
 10 16  1  0
 10 17  1  0
 11 18  1  0
M  END
