
     RDKit          3D

 20 21  0  0  0  0  0  0  0  0999 V2000
   14.9982    0.0991   16.4474 N   0  0  0  0  0  0  0  0  0  0  0  0
   16.3547    2.8478   15.8073 O   0  0  0  0  0  0  0  0  0  0  0  0
   12.8077    1.3771   15.7235 O   0  0  0  0  0  0  0  0  0  0  0  0
   15.0463    2.7874   15.6699 C   0  0  0  0  0  0  0  0  0  0  0  0
   13.8624    1.9976   17.8725 O   0  0  0  0  0  0  0  0  0  0  0  0
   14.5772    3.7935   14.8241 C   0  0  0  0  0  0  0  0  0  0  0  0
   15.9347    5.5537   13.6018 C   0  0  0  0  0  0  0  0  0  0  0  0
   17.2585    6.0042   13.4234 C   0  0  0  0  0  0  0  0  0  0  0  0
   18.3367    5.3555   14.0673 C   0  0  0  0  0  0  0  0  0  0  0  0
   18.0993    4.2595   14.9111 C   0  0  0  0  0  0  0  0  0  0  0  0
   16.7807    3.8467   15.0797 C   0  0  0  0  0  0  0  0  0  0  0  0
   15.7288    4.4670   14.4517 C   0  0  0  0  0  0  0  0  0  0  0  0
   14.1025    1.5645   16.4570 S   0  0  0  0  0  0  0  0  0  0  0  0
   15.0165   -0.2419   15.4601 H   0  0  0  0  0  0  0  0  0  0  0  0
   14.4485   -0.5986   16.9971 H   0  0  0  0  0  0  0  0  0  0  0  0
   13.5586    3.9904   14.5170 H   0  0  0  0  0  0  0  0  0  0  0  0
   15.1066    6.0397   13.1022 H   0  0  0  0  0  0  0  0  0  0  0  0
   17.4525    6.8494   12.7760 H   0  0  0  0  0  0  0  0  0  0  0  0
   19.3483    5.7074   13.9125 H   0  0  0  0  0  0  0  0  0  0  0  0
   18.9134    3.7520   15.4118 H   0  0  0  0  0  0  0  0  0  0  0  0
  4  2  1  0
  6  4  2  0
  8  7  1  0
  9  8  2  0
 10  9  1  0
 11 10  2  0
 11  2  1  0
 12  7  2  0
 12  6  1  0
 12 11  1  0
 13  4  1  0
 13  1  1  0
 13  5  2  0
 13  3  2  0
  1 14  1  0
  1 15  1  0
  6 16  1  0
  7 17  1  0
  8 18  1  0
  9 19  1  0
 10 20  1  0
M  END
