
     RDKit          3D

 70 72  0  0  0  0  0  0  0  0999 V2000
   12.4198   18.1571   18.3027 C   0  0  0  0  0  0  0  0  0  0  0  0
   14.6579   22.2789   18.0372 N   0  0  0  0  0  0  0  0  0  0  0  0
   13.7217   20.1159   18.3276 O   0  0  0  0  0  0  0  0  0  0  0  0
   19.4172   23.7051   16.5660 S   0  0  0  0  0  0  0  0  0  0  0  0
   13.6072   18.7076   20.2811 C   0  0  0  0  0  0  0  0  0  0  0  0
   18.6366   24.0408   18.0699 N   0  0  0  0  0  0  0  0  0  0  0  0
   15.9554   20.4725   18.7687 O   0  0  0  0  0  0  0  0  0  0  0  0
   14.8363   20.9233   18.3941 C   0  0  0  0  0  0  0  0  0  0  0  0
   21.7465   28.6677   14.2283 N   0  0  0  0  0  0  0  0  0  0  0  0
   15.1545   24.9886   18.7831 O   0  0  0  0  0  0  0  0  0  0  0  0
   13.7131   18.7734   18.7707 C   0  0  1  0  0  0  0  0  0  0  0  0
   18.4022   23.1806   15.6010 O   0  0  0  0  0  0  0  0  0  0  0  0
   15.6699   23.0826   17.3749 C   0  0  2  0  0  0  0  0  0  0  0  0
   20.4688   22.6661   16.8183 O   0  0  0  0  0  0  0  0  0  0  0  0
   16.1897   24.1182   18.3963 C   0  0  1  0  0  0  0  0  0  0  0  0
   11.4717   18.3755   19.3134 O   0  0  0  0  0  0  0  0  0  0  0  0
   15.0332   23.7150   16.1208 C   0  0  0  0  0  0  0  0  0  0  0  0
   14.3472   22.6748   15.2670 C   0  0  0  0  0  0  0  0  0  0  0  0
   12.9604   22.4737   15.3598 C   0  0  0  0  0  0  0  0  0  0  0  0
   15.0968   21.8638   14.4006 C   0  0  0  0  0  0  0  0  0  0  0  0
   12.3398   21.4803   14.5990 C   0  0  0  0  0  0  0  0  0  0  0  0
   14.4741   20.8766   13.6380 C   0  0  0  0  0  0  0  0  0  0  0  0
   13.0971   20.6840   13.7391 C   0  0  0  0  0  0  0  0  0  0  0  0
   17.4442   24.8994   17.9444 C   0  0  0  0  0  0  0  0  0  0  0  0
   19.5958   24.4519   19.1052 C   0  0  0  0  0  0  0  0  0  0  0  0
   18.9146   24.4157   20.4822 C   0  0  0  0  0  0  0  0  0  0  0  0
   20.1441   25.1207   15.8507 C   0  0  0  0  0  0  0  0  0  0  0  0
   19.3421   25.9724   15.0847 C   0  0  0  0  0  0  0  0  0  0  0  0
   19.8773   27.1274   14.5296 C   0  0  0  0  0  0  0  0  0  0  0  0
   21.2251   27.4382   14.7261 C   0  0  0  0  0  0  0  0  0  0  0  0
   22.0421   26.5702   15.4674 C   0  0  0  0  0  0  0  0  0  0  0  0
   21.5021   25.4116   16.0345 C   0  0  0  0  0  0  0  0  0  0  0  0
   18.3454   23.0200   20.7906 C   0  0  0  0  0  0  0  0  0  0  0  0
   19.8999   24.8348   21.5743 C   0  0  0  0  0  0  0  0  0  0  0  0
   12.1816   18.2355   20.5205 C   0  0  0  0  0  0  0  0  0  0  0  0
   12.5473   17.0625   18.1409 H   0  0  0  0  0  0  0  0  0  0  0  0
   12.0691   18.6098   17.3498 H   0  0  0  0  0  0  0  0  0  0  0  0
   13.7500   22.7312   18.2929 H   0  0  0  0  0  0  0  0  0  0  0  0
   13.7777   19.7014   20.7514 H   0  0  0  0  0  0  0  0  0  0  0  0
   14.3343   17.9757   20.6956 H   0  0  0  0  0  0  0  0  0  0  0  0
   21.1407   29.3308   13.6950 H   0  0  0  0  0  0  0  0  0  0  0  0
   22.7460   28.9266   14.3861 H   0  0  0  0  0  0  0  0  0  0  0  0
   15.0758   25.7002   18.0955 H   0  0  0  0  0  0  0  0  0  0  0  0
   14.5896   18.2130   18.3741 H   0  0  0  0  0  0  0  0  0  0  0  0
   16.5188   22.4396   17.0567 H   0  0  0  0  0  0  0  0  0  0  0  0
   16.4697   23.5530   19.3087 H   0  0  0  0  0  0  0  0  0  0  0  0
   14.2930   24.4908   16.4130 H   0  0  0  0  0  0  0  0  0  0  0  0
   15.8011   24.2285   15.5082 H   0  0  0  0  0  0  0  0  0  0  0  0
   12.3620   23.0780   16.0302 H   0  0  0  0  0  0  0  0  0  0  0  0
   16.1631   21.9892   14.3097 H   0  0  0  0  0  0  0  0  0  0  0  0
   11.2713   21.3268   14.6778 H   0  0  0  0  0  0  0  0  0  0  0  0
   15.0598   20.2568   12.9714 H   0  0  0  0  0  0  0  0  0  0  0  0
   12.6146   19.9149   13.1500 H   0  0  0  0  0  0  0  0  0  0  0  0
   17.3122   25.2867   16.9138 H   0  0  0  0  0  0  0  0  0  0  0  0
   17.5339   25.8030   18.5878 H   0  0  0  0  0  0  0  0  0  0  0  0
   20.0030   25.4652   18.8896 H   0  0  0  0  0  0  0  0  0  0  0  0
   20.4657   23.7587   19.1397 H   0  0  0  0  0  0  0  0  0  0  0  0
   18.0808   25.1498   20.4927 H   0  0  0  0  0  0  0  0  0  0  0  0
   18.2926   25.7562   14.9313 H   0  0  0  0  0  0  0  0  0  0  0  0
   19.2383   27.7918   13.9614 H   0  0  0  0  0  0  0  0  0  0  0  0
   23.0868   26.8053   15.6275 H   0  0  0  0  0  0  0  0  0  0  0  0
   22.1335   24.7571   16.6215 H   0  0  0  0  0  0  0  0  0  0  0  0
   17.2351   23.0518   20.7880 H   0  0  0  0  0  0  0  0  0  0  0  0
   18.6624   22.2786   20.0287 H   0  0  0  0  0  0  0  0  0  0  0  0
   18.6903   22.6706   21.7875 H   0  0  0  0  0  0  0  0  0  0  0  0
   19.3929   24.8514   22.5627 H   0  0  0  0  0  0  0  0  0  0  0  0
   20.7573   24.1293   21.6233 H   0  0  0  0  0  0  0  0  0  0  0  0
   20.2873   25.8557   21.3693 H   0  0  0  0  0  0  0  0  0  0  0  0
   11.6969   18.8484   21.3100 H   0  0  0  0  0  0  0  0  0  0  0  0
   12.1690   17.1690   20.8389 H   0  0  0  0  0  0  0  0  0  0  0  0
  4  6  1  0
  8  7  2  0
  8  3  1  0
  8  2  1  0
 11  5  1  0
 11  3  1  0
 11  1  1  0
 12  4  2  0
 13  2  1  0
 14  4  2  0
 15 13  1  0
 15 10  1  0
 16  1  1  0
 13 17  1  0
 18 17  1  0
 19 18  2  0
 20 18  1  0
 21 19  1  0
 22 20  2  0
 23 22  1  0
 23 21  2  0
 24 15  1  0
 24  6  1  0
 25  6  1  0
 26 25  1  0
 27  4  1  0
 28 27  2  0
 29 28  1  0
 30 29  2  0
 30  9  1  0
 31 30  1  0
 32 31  2  0
 32 27  1  0
 26 33  1  0
 34 26  1  0
 35 16  1  0
 35  5  1  0
  1 36  1  0
  1 37  1  0
  2 38  1  0
  5 39  1  0
  5 40  1  0
  9 41  1  0
  9 42  1  0
 10 43  1  0
 11 44  1  6
 13 45  1  6
 15 46  1  1
 17 47  1  0
 17 48  1  0
 19 49  1  0
 20 50  1  0
 21 51  1  0
 22 52  1  0
 23 53  1  0
 24 54  1  0
 24 55  1  0
 25 56  1  0
 25 57  1  0
 26 58  1  0
 28 59  1  0
 29 60  1  0
 31 61  1  0
 32 62  1  0
 33 63  1  0
 33 64  1  0
 33 65  1  0
 34 66  1  0
 34 67  1  0
 34 68  1  0
 35 69  1  0
 35 70  1  0
M  END
