
     RDKit          3D

 32 33  0  0  0  0  0  0  0  0999 V2000
    9.1754    2.7920   33.9409 N   0  0  0  0  0  0  0  0  0  0  0  0
    9.2994    2.4016   32.6476 C   0  0  0  0  0  0  0  0  0  0  0  0
   10.5933    2.2517   32.0784 N   0  0  0  0  0  0  0  0  0  0  0  0
    8.1883    2.1574   31.8974 N   0  0  0  0  0  0  0  0  0  0  0  0
    6.9392    2.3016   32.4192 C   0  0  0  0  0  0  0  0  0  0  0  0
    6.7978    2.7112   33.7509 C   0  0  0  0  0  0  0  0  0  0  0  0
    5.9290    2.0777   31.6971 O   0  0  0  0  0  0  0  0  0  0  0  0
    5.5158    2.9303   34.3484 N   0  0  0  0  0  0  0  0  0  0  0  0
    5.4265    3.8228   35.5092 C   0  0  2  0  0  0  0  0  0  0  0  0
    6.5453    3.4815   36.5227 C   0  0  0  0  0  0  0  0  0  0  0  0
    7.9534    2.9493   34.5040 C   0  0  0  0  0  0  0  0  0  0  0  0
    7.8448    3.3783   35.8597 N   0  0  0  0  0  0  0  0  0  0  0  0
    4.0027    3.7640   36.1161 C   0  0  1  0  0  0  0  0  0  0  0  0
    3.6940    2.4480   36.5091 O   0  0  0  0  0  0  0  0  0  0  0  0
    3.8337    4.7223   37.3096 C   0  0  1  0  0  0  0  0  0  0  0  0
    2.5584    4.5331   37.8666 O   0  0  0  0  0  0  0  0  0  0  0  0
    4.8969    4.4568   38.3763 C   0  0  0  0  0  0  0  0  0  0  0  0
   10.7248    1.7433   31.1760 H   0  0  0  0  0  0  0  0  0  0  0  0
   11.4300    2.6504   32.5593 H   0  0  0  0  0  0  0  0  0  0  0  0
    8.2947    1.8567   30.9018 H   0  0  0  0  0  0  0  0  0  0  0  0
    4.6515    2.5658   33.8865 H   0  0  0  0  0  0  0  0  0  0  0  0
    5.6120    4.8576   35.1441 H   0  0  0  0  0  0  0  0  0  0  0  0
    6.6087    4.2705   37.3014 H   0  0  0  0  0  0  0  0  0  0  0  0
    6.3228    2.5133   37.0200 H   0  0  0  0  0  0  0  0  0  0  0  0
    8.7130    3.5304   36.4208 H   0  0  0  0  0  0  0  0  0  0  0  0
    3.3032    4.0953   35.3091 H   0  0  0  0  0  0  0  0  0  0  0  0
    3.1362    2.0467   35.7924 H   0  0  0  0  0  0  0  0  0  0  0  0
    3.9510    5.7738   36.9590 H   0  0  0  0  0  0  0  0  0  0  0  0
    2.6012    4.8637   38.8019 H   0  0  0  0  0  0  0  0  0  0  0  0
    4.4222    4.2495   39.3593 H   0  0  0  0  0  0  0  0  0  0  0  0
    5.5534    5.3466   38.4819 H   0  0  0  0  0  0  0  0  0  0  0  0
    5.5341    3.5943   38.0881 H   0  0  0  0  0  0  0  0  0  0  0  0
  2  1  2  0
  3  2  1  0
  4  2  1  0
  5  4  1  0
  6  5  1  0
  7  5  2  0
  8  6  1  0
  9  8  1  0
  9 10  1  0
 11  6  2  0
 11  1  1  0
 12 11  1  0
 12 10  1  0
 13  9  1  0
 13 14  1  0
 15 13  1  0
 16 15  1  0
 15 17  1  0
  3 18  1  0
  3 19  1  0
  4 20  1  0
  8 21  1  0
  9 22  1  6
 10 23  1  0
 10 24  1  0
 12 25  1  0
 13 26  1  6
 14 27  1  0
 15 28  1  6
 16 29  1  0
 17 30  1  0
 17 31  1  0
 17 32  1  0
M  END
