
     RDKit          3D

 41 42  0  0  0  0  0  0  0  0999 V2000
   52.3652    9.9773   -8.9363 P   0  0  2  0  0  0  0  0  0  0  0  0
   50.2644   10.1438   -7.0455 P   0  0  0  0  0  0  0  0  0  0  0  0
   54.1807    9.1128   -7.3355 C   0  0  0  0  0  0  0  0  0  0  0  0
   53.9784    9.9712   -8.4332 O   0  0  0  0  0  0  0  0  0  0  0  0
   54.9690    9.8559   -6.2463 C   0  0  1  0  0  0  0  0  0  0  0  0
   56.1434   10.4311   -6.7784 O   0  0  0  0  0  0  0  0  0  0  0  0
   54.1500   10.9789   -5.6115 C   0  0  1  0  0  0  0  0  0  0  0  0
   53.3425   10.5526   -4.5420 O   0  0  0  0  0  0  0  0  0  0  0  0
   55.2207   11.9117   -5.1251 C   0  0  0  0  0  0  0  0  0  0  0  0
   56.3812   11.6419   -6.0778 C   0  0  2  0  0  0  0  0  0  0  0  0
   56.5248   12.7626   -7.0269 N   0  0  0  0  0  0  0  0  0  0  0  0
   51.8702    8.5620   -9.1479 O   0  0  0  0  0  0  0  0  0  0  0  0
   50.6642    9.8375   -5.6239 O   0  0  0  0  0  0  0  0  0  0  0  0
   57.4210   13.7774   -6.7977 C   0  0  0  0  0  0  0  0  0  0  0  0
   58.1673   13.7576   -5.7813 O   0  0  0  0  0  0  0  0  0  0  0  0
   52.3123   10.8561  -10.3669 O   0  0  0  0  0  0  0  0  0  0  0  0
   49.7220    8.7596   -7.8261 O   0  0  0  0  0  0  0  0  0  0  0  0
   57.5152   14.8187   -7.6661 N   0  0  0  0  0  0  0  0  0  0  0  0
   51.5335   10.9288   -7.8172 O   0  0  0  0  0  0  0  0  0  0  0  0
   49.0420   11.2922   -7.0496 O   0  0  0  0  0  0  0  0  0  0  0  0
   56.7244   14.8877   -8.7674 C   0  0  0  0  0  0  0  0  0  0  0  0
   56.8480   15.8610   -9.5581 O   0  0  0  0  0  0  0  0  0  0  0  0
   55.7729   13.8825   -9.0107 C   0  0  0  0  0  0  0  0  0  0  0  0
   54.8812   13.8926  -10.2230 C   0  0  0  0  0  0  0  0  0  0  0  0
   55.6982   12.8261   -8.1107 C   0  0  0  0  0  0  0  0  0  0  0  0
   54.7853    8.2472   -7.6801 H   0  0  0  0  0  0  0  0  0  0  0  0
   53.2488    8.6983   -6.8862 H   0  0  0  0  0  0  0  0  0  0  0  0
   55.2671    9.1216   -5.4631 H   0  0  0  0  0  0  0  0  0  0  0  0
   53.5265   11.5090   -6.3612 H   0  0  0  0  0  0  0  0  0  0  0  0
   53.7043    9.6998   -4.1923 H   0  0  0  0  0  0  0  0  0  0  0  0
   55.5224   11.6484   -4.0862 H   0  0  0  0  0  0  0  0  0  0  0  0
   54.8783   12.9703   -5.1452 H   0  0  0  0  0  0  0  0  0  0  0  0
   57.3152   11.5059   -5.4888 H   0  0  0  0  0  0  0  0  0  0  0  0
   51.7011   10.3452  -10.9554 H   0  0  0  0  0  0  0  0  0  0  0  0
   49.3446    9.0843   -8.6824 H   0  0  0  0  0  0  0  0  0  0  0  0
   58.2105   15.5788   -7.4842 H   0  0  0  0  0  0  0  0  0  0  0  0
   48.2721   10.8437   -6.6171 H   0  0  0  0  0  0  0  0  0  0  0  0
   54.3599   14.8681  -10.3288 H   0  0  0  0  0  0  0  0  0  0  0  0
   55.4767   13.7264  -11.1454 H   0  0  0  0  0  0  0  0  0  0  0  0
   54.1232   13.0872  -10.1299 H   0  0  0  0  0  0  0  0  0  0  0  0
   54.9570   12.0716   -8.2780 H   0  0  0  0  0  0  0  0  0  0  0  0
  4  3  1  0
  1  4  1  1
  5  3  1  0
  6  5  1  0
  7  5  1  0
  7  8  1  0
  9  7  1  0
 10  6  1  0
 10  9  1  0
 10 11  1  0
 12  1  2  0
 13  2  2  0
 14 11  1  0
 15 14  2  0
 16  1  1  0
 17  2  1  0
 18 14  1  0
 19  2  1  0
 19  1  1  0
 20  2  1  0
 21 18  1  0
 22 21  2  0
 23 21  1  0
 24 23  1  0
 25 23  2  0
 25 11  1  0
  3 26  1  0
  3 27  1  0
  5 28  1  1
  7 29  1  6
  8 30  1  0
  9 31  1  0
  9 32  1  0
 10 33  1  1
 16 34  1  0
 17 35  1  0
 18 36  1  0
 20 37  1  0
 24 38  1  0
 24 39  1  0
 24 40  1  0
 25 41  1  0
M  END
