
     RDKit          3D

 41 42  0  0  0  0  0  0  0  0999 V2000
   52.1168    9.3196  -10.2547 P   0  0  2  0  0  0  0  0  0  0  0  0
   49.8792    9.6064   -8.5440 P   0  0  0  0  0  0  0  0  0  0  0  0
   53.6887    9.2739   -8.2217 C   0  0  0  0  0  0  0  0  0  0  0  0
   53.5839    9.7581   -9.5398 O   0  0  0  0  0  0  0  0  0  0  0  0
   54.1328   10.4148   -7.2938 C   0  0  1  0  0  0  0  0  0  0  0  0
   55.2934   11.0460   -7.7917 O   0  0  0  0  0  0  0  0  0  0  0  0
   53.0522   11.4847   -7.1433 C   0  0  1  0  0  0  0  0  0  0  0  0
   52.1208   11.2062   -6.1272 O   0  0  0  0  0  0  0  0  0  0  0  0
   53.8611   12.7013   -6.7988 C   0  0  0  0  0  0  0  0  0  0  0  0
   55.2123   12.4206   -7.4489 C   0  0  2  0  0  0  0  0  0  0  0  0
   55.3761   13.2587   -8.6523 N   0  0  0  0  0  0  0  0  0  0  0  0
   51.8821    7.8304  -10.1135 O   0  0  0  0  0  0  0  0  0  0  0  0
   50.4890    9.5640   -7.1652 O   0  0  0  0  0  0  0  0  0  0  0  0
   56.0543   14.4515   -8.6006 C   0  0  0  0  0  0  0  0  0  0  0  0
   56.5819   14.8440   -7.5245 O   0  0  0  0  0  0  0  0  0  0  0  0
   52.2193    9.7646  -11.8713 O   0  0  0  0  0  0  0  0  0  0  0  0
   49.3779    8.0774   -9.0240 O   0  0  0  0  0  0  0  0  0  0  0  0
   56.1658   15.2262   -9.7118 N   0  0  0  0  0  0  0  0  0  0  0  0
   50.9538   10.3520   -9.5984 O   0  0  0  0  0  0  0  0  0  0  0  0
   48.5601   10.6424   -8.5425 O   0  0  0  0  0  0  0  0  0  0  0  0
   55.6046   14.8493  -10.8891 C   0  0  0  0  0  0  0  0  0  0  0  0
   55.7392   15.5857  -11.9027 O   0  0  0  0  0  0  0  0  0  0  0  0
   54.8741   13.6510  -10.9652 C   0  0  0  0  0  0  0  0  0  0  0  0
   54.2453   13.1698  -12.2450 C   0  0  0  0  0  0  0  0  0  0  0  0
   54.7775   12.8743   -9.8168 C   0  0  0  0  0  0  0  0  0  0  0  0
   54.4674    8.4821   -8.2049 H   0  0  0  0  0  0  0  0  0  0  0  0
   52.7565    8.8197   -7.8133 H   0  0  0  0  0  0  0  0  0  0  0  0
   54.3744    9.9839   -6.2951 H   0  0  0  0  0  0  0  0  0  0  0  0
   52.5180   11.6683   -8.0986 H   0  0  0  0  0  0  0  0  0  0  0  0
   52.6120   10.9122   -5.3192 H   0  0  0  0  0  0  0  0  0  0  0  0
   53.9881   12.7835   -5.6957 H   0  0  0  0  0  0  0  0  0  0  0  0
   53.3804   13.6304   -7.1780 H   0  0  0  0  0  0  0  0  0  0  0  0
   56.0225   12.6274   -6.7149 H   0  0  0  0  0  0  0  0  0  0  0  0
   51.6483   10.5701  -11.9487 H   0  0  0  0  0  0  0  0  0  0  0  0
   48.8621    8.2306   -9.8556 H   0  0  0  0  0  0  0  0  0  0  0  0
   56.6950   16.1270   -9.6598 H   0  0  0  0  0  0  0  0  0  0  0  0
   47.9008   10.2116   -7.9418 H   0  0  0  0  0  0  0  0  0  0  0  0
   54.1005   14.0078  -12.9601 H   0  0  0  0  0  0  0  0  0  0  0  0
   54.8937   12.4146  -12.7370 H   0  0  0  0  0  0  0  0  0  0  0  0
   53.2592   12.7120  -12.0219 H   0  0  0  0  0  0  0  0  0  0  0  0
   54.2001   11.9737   -9.8634 H   0  0  0  0  0  0  0  0  0  0  0  0
  4  3  1  0
  1  4  1  1
  5  3  1  0
  6  5  1  0
  7  5  1  0
  7  8  1  0
  9  7  1  0
 10  6  1  0
 10  9  1  0
 10 11  1  0
 12  1  2  0
 13  2  2  0
 14 11  1  0
 15 14  2  0
 16  1  1  0
 17  2  1  0
 18 14  1  0
 19  2  1  0
 19  1  1  0
 20  2  1  0
 21 18  1  0
 22 21  2  0
 23 21  1  0
 24 23  1  0
 25 23  2  0
 25 11  1  0
  3 26  1  0
  3 27  1  0
  5 28  1  1
  7 29  1  6
  8 30  1  0
  9 31  1  0
  9 32  1  0
 10 33  1  1
 16 34  1  0
 17 35  1  0
 18 36  1  0
 20 37  1  0
 24 38  1  0
 24 39  1  0
 24 40  1  0
 25 41  1  0
M  END
