
     RDKit          3D

 41 42  0  0  0  0  0  0  0  0999 V2000
   52.6104    8.9338   -9.1152 P   0  0  2  0  0  0  0  0  0  0  0  0
   50.4054    9.2468   -7.3670 P   0  0  0  0  0  0  0  0  0  0  0  0
   54.1089    9.0659   -7.0312 C   0  0  0  0  0  0  0  0  0  0  0  0
   54.0282    9.4791   -8.3749 O   0  0  0  0  0  0  0  0  0  0  0  0
   54.4642   10.2716   -6.1480 C   0  0  1  0  0  0  0  0  0  0  0  0
   55.6102   10.9346   -6.6382 O   0  0  0  0  0  0  0  0  0  0  0  0
   53.3288   11.2925   -6.0880 C   0  0  1  0  0  0  0  0  0  0  0  0
   52.3761   11.0181   -5.0907 O   0  0  0  0  0  0  0  0  0  0  0  0
   54.0654   12.5632   -5.7788 C   0  0  0  0  0  0  0  0  0  0  0  0
   55.4510   12.3186   -6.3685 C   0  0  2  0  0  0  0  0  0  0  0  0
   55.6173   13.1038   -7.6066 N   0  0  0  0  0  0  0  0  0  0  0  0
   52.4426    7.4434   -8.9066 O   0  0  0  0  0  0  0  0  0  0  0  0
   51.1065    9.3429   -6.0351 O   0  0  0  0  0  0  0  0  0  0  0  0
   56.2351   14.3300   -7.5928 C   0  0  0  0  0  0  0  0  0  0  0  0
   56.7044   14.8006   -6.5209 O   0  0  0  0  0  0  0  0  0  0  0  0
   52.7492    9.3036  -10.7479 O   0  0  0  0  0  0  0  0  0  0  0  0
   49.9365    7.6660   -7.6839 O   0  0  0  0  0  0  0  0  0  0  0  0
   56.3490   15.0540   -8.7375 N   0  0  0  0  0  0  0  0  0  0  0  0
   51.3763    9.9379   -8.5511 O   0  0  0  0  0  0  0  0  0  0  0  0
   49.0480   10.2320   -7.3590 O   0  0  0  0  0  0  0  0  0  0  0  0
   55.8490   14.5924   -9.9123 C   0  0  0  0  0  0  0  0  0  0  0  0
   55.9843   15.2840  -10.9568 O   0  0  0  0  0  0  0  0  0  0  0  0
   55.1802   13.3570   -9.9518 C   0  0  0  0  0  0  0  0  0  0  0  0
   54.6214   12.7830  -11.2259 C   0  0  0  0  0  0  0  0  0  0  0  0
   55.0799   12.6336   -8.7694 C   0  0  0  0  0  0  0  0  0  0  0  0
   54.9236    8.3156   -6.9483 H   0  0  0  0  0  0  0  0  0  0  0  0
   53.1855    8.5865   -6.6316 H   0  0  0  0  0  0  0  0  0  0  0  0
   54.6903    9.9027   -5.1212 H   0  0  0  0  0  0  0  0  0  0  0  0
   52.8209   11.4023   -7.0687 H   0  0  0  0  0  0  0  0  0  0  0  0
   52.0792   11.8746   -4.6921 H   0  0  0  0  0  0  0  0  0  0  0  0
   54.1488   12.7055   -4.6777 H   0  0  0  0  0  0  0  0  0  0  0  0
   53.5546   13.4476   -6.2204 H   0  0  0  0  0  0  0  0  0  0  0  0
   56.2235   12.6011   -5.6193 H   0  0  0  0  0  0  0  0  0  0  0  0
   53.1787    8.5078  -11.1520 H   0  0  0  0  0  0  0  0  0  0  0  0
   49.3608    7.7299   -8.4875 H   0  0  0  0  0  0  0  0  0  0  0  0
   56.8321   15.9814   -8.7136 H   0  0  0  0  0  0  0  0  0  0  0  0
   48.4482    9.8307   -6.6807 H   0  0  0  0  0  0  0  0  0  0  0  0
   54.8697   11.7043  -11.3221 H   0  0  0  0  0  0  0  0  0  0  0  0
   53.5152   12.8775  -11.2428 H   0  0  0  0  0  0  0  0  0  0  0  0
   55.0461   13.3293  -12.0937 H   0  0  0  0  0  0  0  0  0  0  0  0
   54.5485   11.7042   -8.7896 H   0  0  0  0  0  0  0  0  0  0  0  0
  4  3  1  0
  1  4  1  1
  5  3  1  0
  6  5  1  0
  7  5  1  0
  7  8  1  0
  9  7  1  0
 10  6  1  0
 10  9  1  0
 10 11  1  0
 12  1  2  0
 13  2  2  0
 14 11  1  0
 15 14  2  0
 16  1  1  0
 17  2  1  0
 18 14  1  0
 19  2  1  0
 19  1  1  0
 20  2  1  0
 21 18  1  0
 22 21  2  0
 23 21  1  0
 24 23  1  0
 25 23  2  0
 25 11  1  0
  3 26  1  0
  3 27  1  0
  5 28  1  1
  7 29  1  6
  8 30  1  0
  9 31  1  0
  9 32  1  0
 10 33  1  1
 16 34  1  0
 17 35  1  0
 18 36  1  0
 20 37  1  0
 24 38  1  0
 24 39  1  0
 24 40  1  0
 25 41  1  0
M  END
