
     RDKit          3D

 47 49  0  0  0  0  0  0  0  0999 V2000
   -3.6260   16.2383   30.2659 C   0  0  0  0  0  0  0  0  0  0  0  0
   -4.7720   13.1038   24.0994 C   0  0  0  0  0  0  0  0  0  0  0  0
   -0.6543   15.0161   28.0961 C   0  0  0  0  0  0  0  0  0  0  0  0
   -3.8137   16.0341   26.6189 C   0  0  0  0  0  0  0  0  0  0  0  0
   -5.3091   11.5485   28.0973 C   0  0  0  0  0  0  0  0  0  0  0  0
   -4.8793   12.3224   29.1720 C   0  0  0  0  0  0  0  0  0  0  0  0
   -5.0157   11.9386   26.7939 C   0  0  0  0  0  0  0  0  0  0  0  0
   -4.1443   13.4845   28.9481 C   0  0  0  0  0  0  0  0  0  0  0  0
   -3.5937   18.5761   26.9072 C   0  0  0  0  0  0  0  0  0  0  0  0
   -2.4218   15.4085   29.8525 C   0  0  0  0  0  0  0  0  0  0  0  0
   -3.1542   15.1942   27.4520 C   0  0  0  0  0  0  0  0  0  0  0  0
   -3.3998   17.3820   26.2172 C   0  0  0  0  0  0  0  0  0  0  0  0
   -4.2771   13.1122   26.5459 C   0  0  0  0  0  0  0  0  0  0  0  0
   -3.8090   13.8790   27.6419 C   0  0  0  0  0  0  0  0  0  0  0  0
   -2.0226   15.6648   28.3813 C   0  0  2  0  0  0  0  0  0  0  0  0
   -1.6217   19.7700   21.6078 N   0  0  0  0  0  0  0  0  0  0  0  0
   -2.7172   15.6230   23.6993 N   0  0  0  0  0  0  0  0  0  0  0  0
   -4.0070   13.5208   25.2319 O   0  0  0  0  0  0  0  0  0  0  0  0
   -3.2456   19.6029   26.1385 O   0  0  0  0  0  0  0  0  0  0  0  0
   -2.2038   17.7414   22.7294 N   0  0  0  0  0  0  0  0  0  0  0  0
   -2.0919   19.0977   22.7618 C   0  0  0  0  0  0  0  0  0  0  0  0
   -2.4278   19.8019   23.8894 N   0  0  0  0  0  0  0  0  0  0  0  0
   -2.8684   19.1116   24.9741 C   0  0  0  0  0  0  0  0  0  0  0  0
   -2.9712   17.7511   24.9599 C   0  0  0  0  0  0  0  0  0  0  0  0
   -2.6404   17.0385   23.8009 C   0  0  0  0  0  0  0  0  0  0  0  0
   -3.6561   17.1751   29.6702 H   0  0  0  0  0  0  0  0  0  0  0  0
   -4.5622   15.6711   30.0783 H   0  0  0  0  0  0  0  0  0  0  0  0
   -3.5732   16.5055   31.3415 H   0  0  0  0  0  0  0  0  0  0  0  0
   -5.7768   13.5766   24.1194 H   0  0  0  0  0  0  0  0  0  0  0  0
   -4.8626   11.9971   24.0832 H   0  0  0  0  0  0  0  0  0  0  0  0
   -4.2509   13.4269   23.1751 H   0  0  0  0  0  0  0  0  0  0  0  0
    0.1375   15.7949   28.1067 H   0  0  0  0  0  0  0  0  0  0  0  0
   -0.4148   14.2612   28.8751 H   0  0  0  0  0  0  0  0  0  0  0  0
   -0.6511   14.5234   27.1003 H   0  0  0  0  0  0  0  0  0  0  0  0
   -4.6706   15.6518   26.0730 H   0  0  0  0  0  0  0  0  0  0  0  0
   -5.8817   10.6475   28.2763 H   0  0  0  0  0  0  0  0  0  0  0  0
   -5.1270   12.0262   30.1832 H   0  0  0  0  0  0  0  0  0  0  0  0
   -5.3789   11.3175   25.9873 H   0  0  0  0  0  0  0  0  0  0  0  0
   -3.8610   14.0868   29.7999 H   0  0  0  0  0  0  0  0  0  0  0  0
   -3.9843   18.6724   27.9111 H   0  0  0  0  0  0  0  0  0  0  0  0
   -2.7277   14.3510   29.9984 H   0  0  0  0  0  0  0  0  0  0  0  0
   -1.5759   15.5983   30.5496 H   0  0  0  0  0  0  0  0  0  0  0  0
   -1.8796   16.7555   28.2128 H   0  0  0  0  0  0  0  0  0  0  0  0
   -2.1326   19.6884   20.7007 H   0  0  0  0  0  0  0  0  0  0  0  0
   -0.7579   20.3548   21.6533 H   0  0  0  0  0  0  0  0  0  0  0  0
   -1.8384   15.0592   23.6836 H   0  0  0  0  0  0  0  0  0  0  0  0
   -3.6142   15.1013   23.6771 H   0  0  0  0  0  0  0  0  0  0  0  0
  6  5  2  0
  7  5  1  0
  8  6  1  0
 10  1  1  0
 11  4  2  3
 12  9  2  0
 12  4  1  0
 13  7  2  0
 14 13  1  0
 14 11  1  0
 14  8  2  0
 15 11  1  0
 15 10  1  0
 15  3  1  0
 18 13  1  0
 18  2  1  0
 19  9  1  0
 21 16  1  0
 21 20  1  0
 22 21  2  0
 23 22  1  0
 23 19  1  0
 24 23  2  0
 24 12  1  0
 25 17  1  0
 25 24  1  0
 25 20  2  0
  1 26  1  0
  1 27  1  0
  1 28  1  0
  2 29  1  0
  2 30  1  0
  2 31  1  0
  3 32  1  0
  3 33  1  0
  3 34  1  0
  4 35  1  0
  5 36  1  0
  6 37  1  0
  7 38  1  0
  8 39  1  0
  9 40  1  0
 10 41  1  0
 10 42  1  0
 15 43  1  1
 16 44  1  0
 16 45  1  0
 17 46  1  0
 17 47  1  0
M  END
