
     RDKit          3D

 32 33  0  0  0  0  0  0  0  0999 V2000
    9.7991    2.7907   33.2867 N   0  0  0  0  0  0  0  0  0  0  0  0
    9.9479    2.4420   31.9888 C   0  0  0  0  0  0  0  0  0  0  0  0
   11.2573    2.3636   31.4332 N   0  0  0  0  0  0  0  0  0  0  0  0
    8.8507    2.1800   31.2231 N   0  0  0  0  0  0  0  0  0  0  0  0
    7.5941    2.2630   31.7412 C   0  0  0  0  0  0  0  0  0  0  0  0
    7.4280    2.6415   33.0791 C   0  0  0  0  0  0  0  0  0  0  0  0
    6.5990    1.9979   31.0132 O   0  0  0  0  0  0  0  0  0  0  0  0
    6.1471    2.8300   33.6843 N   0  0  0  0  0  0  0  0  0  0  0  0
    6.0847    3.7413   34.8327 C   0  0  2  0  0  0  0  0  0  0  0  0
    7.1701    3.3686   35.8602 C   0  0  0  0  0  0  0  0  0  0  0  0
    8.5729    2.8962   33.8401 C   0  0  0  0  0  0  0  0  0  0  0  0
    8.4595    3.3048   35.1982 N   0  0  0  0  0  0  0  0  0  0  0  0
    4.6868    3.7554   35.4504 C   0  0  1  0  0  0  0  0  0  0  0  0
    3.7298    3.6356   34.4268 O   0  0  0  0  0  0  0  0  0  0  0  0
    4.4999    2.6167   36.4767 C   0  0  1  0  0  0  0  0  0  0  0  0
    3.1410    2.4998   36.8236 O   0  0  0  0  0  0  0  0  0  0  0  0
    4.9807    1.2944   35.8879 C   0  0  0  0  0  0  0  0  0  0  0  0
   11.5545    3.0164   30.6745 H   0  0  0  0  0  0  0  0  0  0  0  0
   11.9360    1.6498   31.7799 H   0  0  0  0  0  0  0  0  0  0  0  0
    8.9752    1.9065   30.2217 H   0  0  0  0  0  0  0  0  0  0  0  0
    5.2790    2.4986   33.2056 H   0  0  0  0  0  0  0  0  0  0  0  0
    6.3094    4.7659   34.4587 H   0  0  0  0  0  0  0  0  0  0  0  0
    7.2396    4.1304   36.6636 H   0  0  0  0  0  0  0  0  0  0  0  0
    6.9497    2.3795   36.3163 H   0  0  0  0  0  0  0  0  0  0  0  0
    9.3248    3.4944   35.7526 H   0  0  0  0  0  0  0  0  0  0  0  0
    4.5634    4.7274   35.9886 H   0  0  0  0  0  0  0  0  0  0  0  0
    2.9789    4.2462   34.6474 H   0  0  0  0  0  0  0  0  0  0  0  0
    5.1191    2.8163   37.3812 H   0  0  0  0  0  0  0  0  0  0  0  0
    2.9771    3.1403   37.5644 H   0  0  0  0  0  0  0  0  0  0  0  0
    4.3959    1.0354   34.9792 H   0  0  0  0  0  0  0  0  0  0  0  0
    4.8523    0.4812   36.6335 H   0  0  0  0  0  0  0  0  0  0  0  0
    6.0579    1.3525   35.6229 H   0  0  0  0  0  0  0  0  0  0  0  0
  2  1  2  0
  3  2  1  0
  4  2  1  0
  5  4  1  0
  6  5  1  0
  7  5  2  0
  8  6  1  0
  9  8  1  0
  9 10  1  0
 11  6  2  0
 11  1  1  0
 12 11  1  0
 12 10  1  0
 13  9  1  0
 13 14  1  0
 15 13  1  0
 16 15  1  0
 15 17  1  0
  3 18  1  0
  3 19  1  0
  4 20  1  0
  8 21  1  0
  9 22  1  6
 10 23  1  0
 10 24  1  0
 12 25  1  0
 13 26  1  1
 14 27  1  0
 15 28  1  1
 16 29  1  0
 17 30  1  0
 17 31  1  0
 17 32  1  0
M  END
