
     RDKit          3D

 32 33  0  0  0  0  0  0  0  0999 V2000
   14.7905    3.3691   47.8006 N   0  0  0  0  0  0  0  0  0  0  0  0
   14.8495    2.9830   49.1029 C   0  0  0  0  0  0  0  0  0  0  0  0
   13.7560    2.2819   49.6727 N   0  0  0  0  0  0  0  0  0  0  0  0
   15.9535    3.2530   49.8575 N   0  0  0  0  0  0  0  0  0  0  0  0
   17.0137    3.9132   49.3259 C   0  0  0  0  0  0  0  0  0  0  0  0
   16.9617    4.3258   47.9951 C   0  0  0  0  0  0  0  0  0  0  0  0
   18.0347    4.1466   50.0306 O   0  0  0  0  0  0  0  0  0  0  0  0
   18.0235    5.0621   47.3968 N   0  0  0  0  0  0  0  0  0  0  0  0
   17.7038    5.9167   46.2539 C   0  0  2  0  0  0  0  0  0  0  0  0
   16.8873    5.1115   45.2191 C   0  0  0  0  0  0  0  0  0  0  0  0
   15.8264    4.0320   47.2347 C   0  0  0  0  0  0  0  0  0  0  0  0
   15.7619    4.4415   45.8663 N   0  0  0  0  0  0  0  0  0  0  0  0
   18.9790    6.5320   45.6509 C   0  0  1  0  0  0  0  0  0  0  0  0
   20.0310    5.6019   45.7649 O   0  0  0  0  0  0  0  0  0  0  0  0
   18.7617    6.9411   44.1700 C   0  0  1  0  0  0  0  0  0  0  0  0
   17.5119    6.4704   43.7203 O   0  0  0  0  0  0  0  0  0  0  0  0
   18.8264    8.4564   43.9789 C   0  0  0  0  0  0  0  0  0  0  0  0
   13.7804    1.9713   50.6693 H   0  0  0  0  0  0  0  0  0  0  0  0
   12.9102    2.0681   49.0989 H   0  0  0  0  0  0  0  0  0  0  0  0
   15.9883    2.9444   50.8557 H   0  0  0  0  0  0  0  0  0  0  0  0
   18.9679    5.0951   47.8444 H   0  0  0  0  0  0  0  0  0  0  0  0
   17.0569    6.7423   46.6270 H   0  0  0  0  0  0  0  0  0  0  0  0
   16.4797    5.7828   44.4352 H   0  0  0  0  0  0  0  0  0  0  0  0
   17.5286    4.3443   44.7345 H   0  0  0  0  0  0  0  0  0  0  0  0
   14.9284    4.1813   45.2926 H   0  0  0  0  0  0  0  0  0  0  0  0
   19.2124    7.4509   46.2416 H   0  0  0  0  0  0  0  0  0  0  0  0
   20.6688    5.9627   46.4344 H   0  0  0  0  0  0  0  0  0  0  0  0
   19.5795    6.5059   43.5507 H   0  0  0  0  0  0  0  0  0  0  0  0
   17.5940    6.3222   42.7419 H   0  0  0  0  0  0  0  0  0  0  0  0
   19.0595    8.9583   44.9422 H   0  0  0  0  0  0  0  0  0  0  0  0
   17.8494    8.8337   43.6087 H   0  0  0  0  0  0  0  0  0  0  0  0
   19.6040    8.7220   43.2321 H   0  0  0  0  0  0  0  0  0  0  0  0
  2  1  2  0
  3  2  1  0
  4  2  1  0
  5  4  1  0
  6  5  1  0
  7  5  2  0
  8  6  1  0
  9  8  1  0
  9 10  1  0
 11  1  1  0
 11  6  2  0
 12 11  1  0
 12 10  1  0
 13  9  1  0
 13 14  1  0
 15 13  1  0
 16 15  1  0
 15 17  1  0
  3 18  1  0
  3 19  1  0
  4 20  1  0
  8 21  1  0
  9 22  1  1
 10 23  1  0
 10 24  1  0
 12 25  1  0
 13 26  1  1
 14 27  1  0
 15 28  1  6
 16 29  1  0
 17 30  1  0
 17 31  1  0
 17 32  1  0
M  END
