
     RDKit          3D

 24 23  0  0  0  0  0  0  0  0999 V2000
   34.0268   -3.9254   39.1865 N   0  0  0  0  0  0  0  0  0  0  0  0
   34.6095   -3.3994   40.4198 C   0  0  1  0  0  0  0  0  0  0  0  0
   33.5697   -3.2290   41.5412 C   0  0  0  0  0  0  0  0  0  0  0  0
   32.6212   -2.0315   41.3196 C   0  0  0  0  0  0  0  0  0  0  0  0
   31.8302   -1.7563   42.6020 C   0  0  0  0  0  0  0  0  0  0  0  0
   33.3632   -0.7568   40.8827 C   0  0  0  0  0  0  0  0  0  0  0  0
   35.9056   -4.5401   40.9233 P   0  0  0  0  0  0  0  0  0  0  0  0
   35.3186   -5.9088   41.1784 O   0  0  0  0  0  0  0  0  0  0  0  0
   36.7218   -3.9715   42.2773 O   0  0  0  0  0  0  0  0  0  0  0  0
   36.9545   -4.6169   39.6218 O   0  0  0  0  0  0  0  0  0  0  0  0
   33.4910   -3.1808   38.6894 H   0  0  0  0  0  0  0  0  0  0  0  0
   33.3660   -4.7056   39.4095 H   0  0  0  0  0  0  0  0  0  0  0  0
   35.1017   -2.4255   40.2096 H   0  0  0  0  0  0  0  0  0  0  0  0
   32.9584   -4.1551   41.6245 H   0  0  0  0  0  0  0  0  0  0  0  0
   34.1098   -3.0937   42.5044 H   0  0  0  0  0  0  0  0  0  0  0  0
   31.8858   -2.2938   40.5277 H   0  0  0  0  0  0  0  0  0  0  0  0
   32.4232   -1.1154   43.2891 H   0  0  0  0  0  0  0  0  0  0  0  0
   30.8715   -1.2434   42.3711 H   0  0  0  0  0  0  0  0  0  0  0  0
   31.6084   -2.7085   43.1298 H   0  0  0  0  0  0  0  0  0  0  0  0
   34.0598   -0.4222   41.6812 H   0  0  0  0  0  0  0  0  0  0  0  0
   32.6361    0.0599   40.6859 H   0  0  0  0  0  0  0  0  0  0  0  0
   33.9364   -0.9055   39.9476 H   0  0  0  0  0  0  0  0  0  0  0  0
   36.1055   -4.1344   43.0353 H   0  0  0  0  0  0  0  0  0  0  0  0
   37.5046   -5.4241   39.7857 H   0  0  0  0  0  0  0  0  0  0  0  0
  2  1  1  0
  3  2  1  0
  4  3  1  0
  4  5  1  0
  6  4  1  0
  7  2  1  0
  8  7  2  0
  9  7  1  0
 10  7  1  0
  1 11  1  0
  1 12  1  0
  2 13  1  6
  3 14  1  0
  3 15  1  0
  4 16  1  0
  5 17  1  0
  5 18  1  0
  5 19  1  0
  6 20  1  0
  6 21  1  0
  6 22  1  0
  9 23  1  0
 10 24  1  0
M  END
