
     RDKit          3D

 13 12  0  0  0  0  0  0  0  0999 V2000
   26.9485   16.6689    5.5599 C   0  0  0  0  0  0  0  0  0  0  0  0
   27.4426   16.2902    4.3002 O   0  0  0  0  0  0  0  0  0  0  0  0
   26.2833   15.4729    6.2617 C   0  0  0  0  0  0  0  0  0  0  0  0
   24.8307   15.7714    6.6670 C   0  0  0  0  0  0  0  0  0  0  0  0
   24.7114   17.0491    7.2358 O   0  0  0  0  0  0  0  0  0  0  0  0
   26.2330   17.5105    5.4387 H   0  0  0  0  0  0  0  0  0  0  0  0
   27.7852   17.0470    6.1912 H   0  0  0  0  0  0  0  0  0  0  0  0
   27.5292   17.1217    3.7644 H   0  0  0  0  0  0  0  0  0  0  0  0
   26.8597   15.2192    7.1781 H   0  0  0  0  0  0  0  0  0  0  0  0
   26.3256   14.5826    5.5961 H   0  0  0  0  0  0  0  0  0  0  0  0
   24.4578   15.0140    7.3950 H   0  0  0  0  0  0  0  0  0  0  0  0
   24.1769   15.7127    5.7707 H   0  0  0  0  0  0  0  0  0  0  0  0
   25.3083   17.0644    8.0293 H   0  0  0  0  0  0  0  0  0  0  0  0
  2  1  1  0
  3  1  1  0
  4  3  1  0
  5  4  1  0
  1  6  1  0
  1  7  1  0
  2  8  1  0
  3  9  1  0
  3 10  1  0
  4 11  1  0
  4 12  1  0
  5 13  1  0
M  END
