
     RDKit          3D

 32 33  0  0  0  0  0  0  0  0999 V2000
    9.5576    2.2768   34.0509 N   0  0  0  0  0  0  0  0  0  0  0  0
    9.7175    1.8835   32.7629 C   0  0  0  0  0  0  0  0  0  0  0  0
   11.0255    1.8010   32.2102 N   0  0  0  0  0  0  0  0  0  0  0  0
    8.6287    1.5676   32.0037 N   0  0  0  0  0  0  0  0  0  0  0  0
    7.3661    1.6425   32.5110 C   0  0  0  0  0  0  0  0  0  0  0  0
    7.1880    2.0576   33.8341 C   0  0  0  0  0  0  0  0  0  0  0  0
    6.3759    1.3514   31.7839 O   0  0  0  0  0  0  0  0  0  0  0  0
    5.8888    2.2223   34.4119 N   0  0  0  0  0  0  0  0  0  0  0  0
    5.7540    3.1407   35.5477 C   0  0  2  0  0  0  0  0  0  0  0  0
    6.8614    2.8456   36.5876 C   0  0  0  0  0  0  0  0  0  0  0  0
    8.3220    2.3664   34.5984 C   0  0  0  0  0  0  0  0  0  0  0  0
    8.1746    2.7962   35.9497 N   0  0  0  0  0  0  0  0  0  0  0  0
    4.3257    3.0656   36.1307 C   0  0  1  0  0  0  0  0  0  0  0  0
    4.0451    1.7476   36.5351 O   0  0  0  0  0  0  0  0  0  0  0  0
    4.1313    4.0353   37.3127 C   0  0  1  0  0  0  0  0  0  0  0  0
    2.7695    4.0603   37.6639 O   0  0  0  0  0  0  0  0  0  0  0  0
    4.9673    3.6036   38.5181 C   0  0  0  0  0  0  0  0  0  0  0  0
   11.8041    2.3832   32.5909 H   0  0  0  0  0  0  0  0  0  0  0  0
   11.2217    1.1541   31.4144 H   0  0  0  0  0  0  0  0  0  0  0  0
    8.7632    1.2633   31.0126 H   0  0  0  0  0  0  0  0  0  0  0  0
    5.0467    1.8081   33.9509 H   0  0  0  0  0  0  0  0  0  0  0  0
    5.9218    4.1719   35.1637 H   0  0  0  0  0  0  0  0  0  0  0  0
    6.8839    3.6390   37.3633 H   0  0  0  0  0  0  0  0  0  0  0  0
    6.6679    1.8701   37.0829 H   0  0  0  0  0  0  0  0  0  0  0  0
    9.0253    3.0013   36.5205 H   0  0  0  0  0  0  0  0  0  0  0  0
    3.6283    3.3726   35.3127 H   0  0  0  0  0  0  0  0  0  0  0  0
    3.9407    1.7559   37.5225 H   0  0  0  0  0  0  0  0  0  0  0  0
    4.4741    5.0538   37.0197 H   0  0  0  0  0  0  0  0  0  0  0  0
    2.3914    4.8981   37.2884 H   0  0  0  0  0  0  0  0  0  0  0  0
    4.6721    4.1768   39.4230 H   0  0  0  0  0  0  0  0  0  0  0  0
    6.0432    3.7919   38.3162 H   0  0  0  0  0  0  0  0  0  0  0  0
    4.8411    2.5180   38.7148 H   0  0  0  0  0  0  0  0  0  0  0  0
  2  1  2  0
  3  2  1  0
  4  2  1  0
  5  4  1  0
  6  5  1  0
  7  5  2  0
  8  6  1  0
  9  8  1  0
  9 10  1  0
 11  6  2  0
 11  1  1  0
 12 11  1  0
 12 10  1  0
 13  9  1  0
 13 14  1  0
 15 13  1  0
 16 15  1  0
 15 17  1  0
  3 18  1  0
  3 19  1  0
  4 20  1  0
  8 21  1  0
  9 22  1  6
 10 23  1  0
 10 24  1  0
 12 25  1  0
 13 26  1  6
 14 27  1  0
 15 28  1  6
 16 29  1  0
 17 30  1  0
 17 31  1  0
 17 32  1  0
M  END
