
     RDKit          3D

 42 44  0  0  0  0  0  0  0  0999 V2000
   33.7965   29.9624   31.4939 P   0  0  0  0  0  0  0  0  0  0  0  0
   36.9439   34.0449   35.6452 P   0  0  0  0  0  0  0  0  0  0  0  0
   32.5906   30.0480   30.5885 O   0  0  0  0  0  0  0  0  0  0  0  0
   34.2617   28.3594   31.6667 O   0  0  0  0  0  0  0  0  0  0  0  0
   35.0750   30.8413   30.8561 O   0  0  0  0  0  0  0  0  0  0  0  0
   37.3517   34.0419   37.1010 O   0  0  0  0  0  0  0  0  0  0  0  0
   36.6607   35.6210   35.1413 O   0  0  0  0  0  0  0  0  0  0  0  0
   38.1551   33.3468   34.7159 O   0  0  0  0  0  0  0  0  0  0  0  0
   35.0686   33.0099   34.2005 C   0  0  0  0  0  0  0  0  0  0  0  0
   35.5228   33.1419   35.5281 O   0  0  0  0  0  0  0  0  0  0  0  0
   33.6396   32.4699   34.3226 C   0  0  1  0  0  0  0  0  0  0  0  0
   32.7795   33.4901   34.7538 O   0  0  0  0  0  0  0  0  0  0  0  0
   33.0270   31.8507   33.0723 C   0  0  1  0  0  0  0  0  0  0  0  0
   33.4339   30.5023   33.0530 O   0  0  0  0  0  0  0  0  0  0  0  0
   31.5208   32.0350   33.3494 C   0  0  1  0  0  0  0  0  0  0  0  0
   30.8617   30.8247   33.6458 O   0  0  0  0  0  0  0  0  0  0  0  0
   31.4880   32.9792   34.5700 C   0  0  2  0  0  0  0  0  0  0  0  0
   29.3288   36.7355   31.6855 N   0  0  0  0  0  0  0  0  0  0  0  0
   30.2692   35.8149   31.3069 C   0  0  0  0  0  0  0  0  0  0  0  0
   30.7407   34.8899   32.1932 N   0  0  0  0  0  0  0  0  0  0  0  0
   30.2493   34.9173   33.4554 C   0  0  0  0  0  0  0  0  0  0  0  0
   29.3320   35.8299   33.8630 C   0  0  0  0  0  0  0  0  0  0  0  0
   28.8408   36.7673   32.9575 C   0  0  0  0  0  0  0  0  0  0  0  0
   27.8512   37.7228   33.3174 N   0  0  0  0  0  0  0  0  0  0  0  0
   29.0194   35.6418   35.1610 N   0  0  0  0  0  0  0  0  0  0  0  0
   29.7842   34.5710   35.5004 C   0  0  0  0  0  0  0  0  0  0  0  0
   30.5288   34.0845   34.4710 N   0  0  0  0  0  0  0  0  0  0  0  0
   33.4839   27.9135   32.0879 H   0  0  0  0  0  0  0  0  0  0  0  0
   35.7873   30.7825   31.5417 H   0  0  0  0  0  0  0  0  0  0  0  0
   36.8181   35.6060   34.1635 H   0  0  0  0  0  0  0  0  0  0  0  0
   38.7156   34.1060   34.4154 H   0  0  0  0  0  0  0  0  0  0  0  0
   35.7035   32.2763   33.6572 H   0  0  0  0  0  0  0  0  0  0  0  0
   35.0564   33.9839   33.6606 H   0  0  0  0  0  0  0  0  0  0  0  0
   33.6591   31.6827   35.1192 H   0  0  0  0  0  0  0  0  0  0  0  0
   33.3516   32.4147   32.1669 H   0  0  0  0  0  0  0  0  0  0  0  0
   31.0397   32.4716   32.4544 H   0  0  0  0  0  0  0  0  0  0  0  0
   30.1008   30.7187   33.0162 H   0  0  0  0  0  0  0  0  0  0  0  0
   31.2331   32.3899   35.4823 H   0  0  0  0  0  0  0  0  0  0  0  0
   30.6396   35.8173   30.2911 H   0  0  0  0  0  0  0  0  0  0  0  0
   27.9935   38.3398   34.1476 H   0  0  0  0  0  0  0  0  0  0  0  0
   26.9727   37.8211   32.7615 H   0  0  0  0  0  0  0  0  0  0  0  0
   29.7924   34.1478   36.4968 H   0  0  0  0  0  0  0  0  0  0  0  0
  3  1  2  0
  4  1  1  0
  5  1  1  0
  6  2  2  0
  7  2  1  0
  8  2  1  0
 10  9  1  0
 10  2  1  0
 11  9  1  0
 12 11  1  0
 13 11  1  0
 13 14  1  0
 14  1  1  0
 15 13  1  0
 15 16  1  0
 17 15  1  0
 17 12  1  0
 19 18  2  0
 20 19  1  0
 21 20  2  0
 22 21  1  0
 23 22  2  0
 23 18  1  0
 24 23  1  0
 25 22  1  0
 26 25  2  0
 27 21  1  0
 27 26  1  0
 17 27  1  0
  4 28  1  0
  5 29  1  0
  7 30  1  0
  8 31  1  0
  9 32  1  0
  9 33  1  0
 11 34  1  1
 13 35  1  6
 15 36  1  6
 16 37  1  0
 17 38  1  1
 19 39  1  0
 24 40  1  0
 24 41  1  0
 26 42  1  0
M  END
