
     RDKit          3D

 42 44  0  0  0  0  0  0  0  0999 V2000
   33.8537   29.4649   30.8092 P   0  0  0  0  0  0  0  0  0  0  0  0
   36.9508   33.7053   34.8306 P   0  0  0  0  0  0  0  0  0  0  0  0
   32.7348   29.5737   29.8006 O   0  0  0  0  0  0  0  0  0  0  0  0
   34.1627   27.8489   31.1395 O   0  0  0  0  0  0  0  0  0  0  0  0
   35.2501   30.1831   30.2192 O   0  0  0  0  0  0  0  0  0  0  0  0
   37.2619   33.7928   36.3076 O   0  0  0  0  0  0  0  0  0  0  0  0
   36.7950   35.2507   34.1938 O   0  0  0  0  0  0  0  0  0  0  0  0
   38.1766   32.8728   34.0417 O   0  0  0  0  0  0  0  0  0  0  0  0
   35.1158   32.6647   33.3391 C   0  0  0  0  0  0  0  0  0  0  0  0
   35.4894   32.8742   34.6817 O   0  0  0  0  0  0  0  0  0  0  0  0
   33.6524   32.2139   33.4009 C   0  0  1  0  0  0  0  0  0  0  0  0
   32.8266   33.3118   33.6818 O   0  0  0  0  0  0  0  0  0  0  0  0
   33.0911   31.5216   32.1649 C   0  0  1  0  0  0  0  0  0  0  0  0
   33.4181   30.1569   32.2874 O   0  0  0  0  0  0  0  0  0  0  0  0
   31.5830   31.8088   32.3149 C   0  0  1  0  0  0  0  0  0  0  0  0
   30.8349   30.6655   32.6618 O   0  0  0  0  0  0  0  0  0  0  0  0
   31.5227   32.8561   33.4472 C   0  0  2  0  0  0  0  0  0  0  0  0
   29.7911   36.4562   30.1106 N   0  0  0  0  0  0  0  0  0  0  0  0
   30.6992   35.4576   29.8795 C   0  0  0  0  0  0  0  0  0  0  0  0
   31.0536   34.5895   30.8717 N   0  0  0  0  0  0  0  0  0  0  0  0
   30.4797   34.7528   32.0879 C   0  0  0  0  0  0  0  0  0  0  0  0
   29.5922   35.7447   32.3502 C   0  0  0  0  0  0  0  0  0  0  0  0
   29.2202   36.6244   31.3365 C   0  0  0  0  0  0  0  0  0  0  0  0
   28.2665   37.6587   31.5425 N   0  0  0  0  0  0  0  0  0  0  0  0
   29.1811   35.6872   33.6330 N   0  0  0  0  0  0  0  0  0  0  0  0
   29.8564   34.6109   34.1152 C   0  0  0  0  0  0  0  0  0  0  0  0
   30.6395   33.9979   33.1869 N   0  0  0  0  0  0  0  0  0  0  0  0
   33.3183   27.5028   31.5248 H   0  0  0  0  0  0  0  0  0  0  0  0
   35.8984   30.1229   30.9654 H   0  0  0  0  0  0  0  0  0  0  0  0
   35.8290   35.3471   33.9977 H   0  0  0  0  0  0  0  0  0  0  0  0
   38.9197   33.5233   33.9675 H   0  0  0  0  0  0  0  0  0  0  0  0
   35.7403   31.8579   32.8966 H   0  0  0  0  0  0  0  0  0  0  0  0
   35.1965   33.5932   32.7294 H   0  0  0  0  0  0  0  0  0  0  0  0
   33.5710   31.4991   34.2594 H   0  0  0  0  0  0  0  0  0  0  0  0
   33.5096   31.9866   31.2419 H   0  0  0  0  0  0  0  0  0  0  0  0
   31.1908   32.1908   31.3540 H   0  0  0  0  0  0  0  0  0  0  0  0
   31.0001   30.4605   33.6196 H   0  0  0  0  0  0  0  0  0  0  0  0
   31.1718   32.3627   34.3842 H   0  0  0  0  0  0  0  0  0  0  0  0
   31.1376   35.3520   28.8968 H   0  0  0  0  0  0  0  0  0  0  0  0
   28.3879   38.3373   32.3267 H   0  0  0  0  0  0  0  0  0  0  0  0
   27.4353   37.7547   30.9176 H   0  0  0  0  0  0  0  0  0  0  0  0
   29.7715   34.2763   35.1412 H   0  0  0  0  0  0  0  0  0  0  0  0
  3  1  2  0
  4  1  1  0
  5  1  1  0
  6  2  2  0
  7  2  1  0
  8  2  1  0
 10  9  1  0
 10  2  1  0
 11  9  1  0
 12 11  1  0
 13 11  1  0
 13 14  1  0
 14  1  1  0
 15 13  1  0
 15 16  1  0
 17 15  1  0
 17 12  1  0
 19 18  2  0
 20 19  1  0
 21 20  2  0
 22 21  1  0
 23 22  2  0
 23 18  1  0
 24 23  1  0
 25 22  1  0
 26 25  2  0
 27 21  1  0
 27 26  1  0
 17 27  1  0
  4 28  1  0
  5 29  1  0
  7 30  1  0
  8 31  1  0
  9 32  1  0
  9 33  1  0
 11 34  1  1
 13 35  1  6
 15 36  1  6
 16 37  1  0
 17 38  1  1
 19 39  1  0
 24 40  1  0
 24 41  1  0
 26 42  1  0
M  END
