
     RDKit          3D

 43 44  0  0  0  0  0  0  0  0999 V2000
   15.4425   -9.2924   -1.3837 C   0  0  0  0  0  0  0  0  0  0  0  0
   14.0218   -2.8692   -3.8925 C   0  0  0  0  0  0  0  0  0  0  0  0
   16.2199  -10.3938   -1.5144 N   0  0  0  0  0  0  0  0  0  0  0  0
    8.5204   -5.9374   -5.6899 O   0  0  0  0  0  0  0  0  0  0  0  0
   16.3341  -11.0392   -2.6985 C   0  0  0  0  0  0  0  0  0  0  0  0
    7.6820   -6.9437   -5.1444 C   0  0  0  0  0  0  0  0  0  0  0  0
   15.6729  -10.5817   -3.7881 N   0  0  0  0  0  0  0  0  0  0  0  0
   14.8487   -9.5093   -3.7190 C   0  0  0  0  0  0  0  0  0  0  0  0
   14.7226   -8.8190   -2.4947 C   0  0  0  0  0  0  0  0  0  0  0  0
   14.1055   -9.1091   -4.9670 C   0  0  0  0  0  0  0  0  0  0  0  0
   15.3823   -8.6353   -0.1158 N   0  0  0  0  0  0  0  0  0  0  0  0
   14.1020   -7.5982   -5.0771 C   0  0  0  0  0  0  0  0  0  0  0  0
   17.1378  -12.2016   -2.7980 N   0  0  0  0  0  0  0  0  0  0  0  0
   13.8116   -7.7234   -2.3417 C   0  0  0  0  0  0  0  0  0  0  0  0
   12.9995   -6.8581   -2.1784 C   0  0  0  0  0  0  0  0  0  0  0  0
   13.2101   -3.9092   -3.3631 O   0  0  0  0  0  0  0  0  0  0  0  0
   11.9353   -5.8846   -1.9616 C   0  0  0  0  0  0  0  0  0  0  0  0
   11.3649   -5.4303   -3.2808 C   0  0  0  0  0  0  0  0  0  0  0  0
   12.0560   -4.4217   -3.9611 C   0  0  0  0  0  0  0  0  0  0  0  0
   11.5761   -3.9467   -5.1821 C   0  0  0  0  0  0  0  0  0  0  0  0
   10.4092   -4.4813   -5.7206 C   0  0  0  0  0  0  0  0  0  0  0  0
    9.6973   -5.4891   -5.0703 C   0  0  0  0  0  0  0  0  0  0  0  0
   10.1827   -5.9861   -3.8321 C   0  0  0  0  0  0  0  0  0  0  0  0
   14.4358   -3.1734   -4.8770 H   0  0  0  0  0  0  0  0  0  0  0  0
   13.4261   -1.9383   -4.0002 H   0  0  0  0  0  0  0  0  0  0  0  0
   14.8633   -2.6759   -3.1963 H   0  0  0  0  0  0  0  0  0  0  0  0
    7.2948   -6.6226   -4.1543 H   0  0  0  0  0  0  0  0  0  0  0  0
    6.8228   -7.1092   -5.8262 H   0  0  0  0  0  0  0  0  0  0  0  0
    8.2449   -7.8957   -5.0429 H   0  0  0  0  0  0  0  0  0  0  0  0
   14.6007   -9.5419   -5.8636 H   0  0  0  0  0  0  0  0  0  0  0  0
   13.0618   -9.4899   -4.9383 H   0  0  0  0  0  0  0  0  0  0  0  0
   16.2264   -8.4910    0.4808 H   0  0  0  0  0  0  0  0  0  0  0  0
   14.4652   -8.2929    0.2475 H   0  0  0  0  0  0  0  0  0  0  0  0
   14.4242   -7.1381   -4.1181 H   0  0  0  0  0  0  0  0  0  0  0  0
   13.0916   -7.2217   -5.3438 H   0  0  0  0  0  0  0  0  0  0  0  0
   14.8102   -7.2854   -5.8730 H   0  0  0  0  0  0  0  0  0  0  0  0
   17.2411  -12.8448   -1.9819 H   0  0  0  0  0  0  0  0  0  0  0  0
   17.6351  -12.4266   -3.6882 H   0  0  0  0  0  0  0  0  0  0  0  0
   11.1397   -6.3675   -1.3556 H   0  0  0  0  0  0  0  0  0  0  0  0
   12.3208   -5.0326   -1.3622 H   0  0  0  0  0  0  0  0  0  0  0  0
   12.0918   -3.1643   -5.7220 H   0  0  0  0  0  0  0  0  0  0  0  0
   10.0453   -4.0978   -6.6657 H   0  0  0  0  0  0  0  0  0  0  0  0
    9.6570   -6.7686   -3.3013 H   0  0  0  0  0  0  0  0  0  0  0  0
  3  1  2  0
  5  3  1  0
  6  4  1  0
  7  5  2  0
  8  7  1  0
  9  8  2  0
  9  1  1  0
 10  8  1  0
 11  1  1  0
 12 10  1  0
 13  5  1  0
 14  9  1  0
 15 14  3  0
 16  2  1  0
 17 15  1  0
 18 17  1  0
 19 18  2  0
 19 16  1  0
 20 19  1  0
 21 20  2  0
 22  4  1  0
 22 21  1  0
 23 22  2  0
 23 18  1  0
  2 24  1  0
  2 25  1  0
  2 26  1  0
  6 27  1  0
  6 28  1  0
  6 29  1  0
 10 30  1  0
 10 31  1  0
 11 32  1  0
 11 33  1  0
 12 34  1  0
 12 35  1  0
 12 36  1  0
 13 37  1  0
 13 38  1  0
 17 39  1  0
 17 40  1  0
 20 41  1  0
 21 42  1  0
 23 43  1  0
M  END
