
     RDKit          3D

 16 15  0  0  0  0  0  0  0  0999 V2000
   79.7798  -21.4639   38.9603 P   0  0  0  0  0  0  0  0  0  0  0  0
   80.6331  -20.1733   38.2644 O   0  0  0  0  0  0  0  0  0  0  0  0
   80.7953  -22.4368   39.5256 O   0  0  0  0  0  0  0  0  0  0  0  0
   78.6679  -20.9826   40.1533 O   0  0  0  0  0  0  0  0  0  0  0  0
   78.9827  -22.2325   37.6869 O   0  0  0  0  0  0  0  0  0  0  0  0
   81.9640  -20.9599   39.9691 C   0  0  0  0  0  0  0  0  0  0  0  0
   80.9848  -20.9874   40.7641 O   0  0  0  0  0  0  0  0  0  0  0  0
   81.9215  -20.0480   38.7912 C   0  0  0  0  0  0  0  0  0  0  0  0
   83.0905  -21.7931   40.1942 N   0  0  0  0  0  0  0  0  0  0  0  0
   83.0565  -22.7190   41.1786 O   0  0  0  0  0  0  0  0  0  0  0  0
   79.1782  -20.9969   41.0020 H   0  0  0  0  0  0  0  0  0  0  0  0
   79.4510  -21.9250   36.8699 H   0  0  0  0  0  0  0  0  0  0  0  0
   82.6764  -20.3542   38.0341 H   0  0  0  0  0  0  0  0  0  0  0  0
   82.1194  -19.0112   39.1441 H   0  0  0  0  0  0  0  0  0  0  0  0
   83.9417  -21.7125   39.5940 H   0  0  0  0  0  0  0  0  0  0  0  0
   83.9043  -23.2238   41.0825 H   0  0  0  0  0  0  0  0  0  0  0  0
  2  1  1  0
  3  1  2  0
  4  1  1  0
  5  1  1  0
  7  6  2  0
  8  2  1  0
  8  6  1  0
  9  6  1  0
 10  9  1  0
  4 11  1  0
  5 12  1  0
  8 13  1  0
  8 14  1  0
  9 15  1  0
 10 16  1  0
M  END
