
     RDKit          3D

 26 25  0  0  0  0  0  0  0  0999 V2000
   32.0853   54.6251   19.0461 N   0  0  0  0  0  0  0  0  0  0  0  0
   32.2994   55.7213   18.0763 C   0  0  1  0  0  0  0  0  0  0  0  0
   31.1232   56.6629   18.0921 C   0  0  0  0  0  0  0  0  0  0  0  0
   30.2309   56.6054   17.2023 O   0  0  0  0  0  0  0  0  0  0  0  0
   33.5926   56.4760   18.4708 C   0  0  0  0  0  0  0  0  0  0  0  0
   33.4240   57.5793   19.5328 C   0  0  0  0  0  0  0  0  0  0  0  0
   34.7577   57.9157   20.1331 C   0  0  0  0  0  0  0  0  0  0  0  0
   35.8210   57.6147   19.5267 O   0  0  0  0  0  0  0  0  0  0  0  0
   34.8143   58.6032   21.3329 O   0  0  0  0  0  0  0  0  0  0  0  0
   32.1085   53.0139   18.3642 P   0  0  1  0  0  0  0  0  0  0  0  0
   31.0064   57.5738   19.1234 O   0  0  0  0  0  0  0  0  0  0  0  0
   32.3199   51.8872   19.7607 C   0  0  0  0  0  0  0  0  0  0  0  0
   30.8054   52.7101   17.6547 O   0  0  0  0  0  0  0  0  0  0  0  0
   33.4094   52.8157   17.3225 O   0  0  0  0  0  0  0  0  0  0  0  0
   31.1930   54.7023   19.5850 H   0  0  0  0  0  0  0  0  0  0  0  0
   32.4195   55.3315   17.0416 H   0  0  0  0  0  0  0  0  0  0  0  0
   34.3371   55.7326   18.8355 H   0  0  0  0  0  0  0  0  0  0  0  0
   34.0156   56.9389   17.5515 H   0  0  0  0  0  0  0  0  0  0  0  0
   32.7469   57.2355   20.3430 H   0  0  0  0  0  0  0  0  0  0  0  0
   32.9812   58.4850   19.0653 H   0  0  0  0  0  0  0  0  0  0  0  0
   35.0043   59.5980   21.3535 H   0  0  0  0  0  0  0  0  0  0  0  0
   30.8852   57.2638   20.0802 H   0  0  0  0  0  0  0  0  0  0  0  0
   31.3247   51.5770   20.1404 H   0  0  0  0  0  0  0  0  0  0  0  0
   32.8846   50.9911   19.4307 H   0  0  0  0  0  0  0  0  0  0  0  0
   32.8805   52.3996   20.5695 H   0  0  0  0  0  0  0  0  0  0  0  0
   33.0089   52.6025   16.4423 H   0  0  0  0  0  0  0  0  0  0  0  0
  2  1  1  0
  3  2  1  0
  4  3  2  0
  2  5  1  0
  6  5  1  0
  7  6  1  0
  8  7  2  0
  9  7  1  0
 10  1  1  0
 11  3  1  0
 12 10  1  0
 13 10  2  0
 10 14  1  6
  1 15  1  0
  2 16  1  6
  5 17  1  0
  5 18  1  0
  6 19  1  0
  6 20  1  0
  9 21  1  0
 11 22  1  0
 12 23  1  0
 12 24  1  0
 12 25  1  0
 14 26  1  0
M  END
