
     RDKit          3D

 59 62  0  0  0  0  0  0  0  0999 V2000
   11.9158   17.0890  -11.5838 P   0  0  2  0  0  0  0  0  0  0  0  0
   13.7451   18.0171   -9.6918 P   0  0  2  0  0  0  0  0  0  0  0  0
   13.3489   15.5854  -13.0122 C   0  0  0  0  0  0  0  0  0  0  0  0
   12.8920   16.9086  -12.9390 O   0  0  0  0  0  0  0  0  0  0  0  0
   14.3992   15.5470  -14.1096 C   0  0  1  0  0  0  0  0  0  0  0  0
   14.9960   14.2723  -14.1472 O   0  0  0  0  0  0  0  0  0  0  0  0
   13.8061   15.8634  -15.4908 C   0  0  1  0  0  0  0  0  0  0  0  0
   14.6871   16.7462  -16.1418 O   0  0  0  0  0  0  0  0  0  0  0  0
   13.8060   14.5040  -16.1599 C   0  0  1  0  0  0  0  0  0  0  0  0
   13.9689   14.5959  -17.5516 O   0  0  0  0  0  0  0  0  0  0  0  0
   15.0200   13.8843  -15.4936 C   0  0  2  0  0  0  0  0  0  0  0  0
   12.0810   19.8282   -4.8182 C   0  0  1  0  0  0  0  0  0  0  0  0
   18.2565    9.9431  -15.6355 N   0  0  0  0  0  0  0  0  0  0  0  0
   10.7842   16.0871  -11.5886 O   0  0  0  0  0  0  0  0  0  0  0  0
   13.2895   19.3485  -10.2487 O   0  0  0  0  0  0  0  0  0  0  0  0
   10.7118   19.5595   -4.6416 O   0  0  0  0  0  0  0  0  0  0  0  0
   18.5149   11.2843  -15.7357 C   0  0  0  0  0  0  0  0  0  0  0  0
   12.9441   18.8752   -3.9759 C   0  0  2  0  0  0  0  0  0  0  0  0
   11.3412   18.6706  -11.6335 O   0  0  0  0  0  0  0  0  0  0  0  0
   15.3227   17.6674  -10.1565 O   0  0  0  0  0  0  0  0  0  0  0  0
   13.6376   19.6162   -3.0049 O   0  0  0  0  0  0  0  0  0  0  0  0
   13.9252   18.3023   -4.9897 C   0  0  2  0  0  0  0  0  0  0  0  0
   17.4905   12.1870  -15.7222 N   0  0  0  0  0  0  0  0  0  0  0  0
   12.8499   16.7008  -10.2375 O   0  0  0  0  0  0  0  0  0  0  0  0
   15.2227   18.1594   -4.4676 O   0  0  0  0  0  0  0  0  0  0  0  0
   16.2196   11.7153  -15.6157 C   0  0  0  0  0  0  0  0  0  0  0  0
   13.8595   19.3633   -6.0739 C   0  0  2  0  0  0  0  0  0  0  0  0
   12.4830   19.6741   -6.1700 O   0  0  0  0  0  0  0  0  0  0  0  0
   15.9332   10.3972  -15.4982 C   0  0  0  0  0  0  0  0  0  0  0  0
   14.4704   18.9312   -7.4135 C   0  0  0  0  0  0  0  0  0  0  0  0
   13.6048   18.0069   -8.0128 O   0  0  0  0  0  0  0  0  0  0  0  0
   16.9797    9.4661  -15.5131 C   0  0  0  0  0  0  0  0  0  0  0  0
   16.7475    8.0653  -15.3985 N   0  0  0  0  0  0  0  0  0  0  0  0
   14.5992   10.2220  -15.3506 N   0  0  0  0  0  0  0  0  0  0  0  0
   14.1125   11.4965  -15.3874 C   0  0  0  0  0  0  0  0  0  0  0  0
   15.0864   12.4281  -15.5758 N   0  0  0  0  0  0  0  0  0  0  0  0
   12.5155   14.8909  -13.2642 H   0  0  0  0  0  0  0  0  0  0  0  0
   13.8370   15.2626  -12.0640 H   0  0  0  0  0  0  0  0  0  0  0  0
   15.1887   16.2887  -13.8469 H   0  0  0  0  0  0  0  0  0  0  0  0
   12.7760   16.2905  -15.4438 H   0  0  0  0  0  0  0  0  0  0  0  0
   14.1744   17.1675  -16.8801 H   0  0  0  0  0  0  0  0  0  0  0  0
   12.8661   13.9654  -15.9010 H   0  0  0  0  0  0  0  0  0  0  0  0
   13.8991   13.6696  -17.9013 H   0  0  0  0  0  0  0  0  0  0  0  0
   15.9378   14.3111  -15.9652 H   0  0  0  0  0  0  0  0  0  0  0  0
   12.2697   20.8864   -4.5148 H   0  0  0  0  0  0  0  0  0  0  0  0
   10.6597   18.7535   -4.0649 H   0  0  0  0  0  0  0  0  0  0  0  0
   19.5353   11.6302  -15.8255 H   0  0  0  0  0  0  0  0  0  0  0  0
   12.3499   18.0560   -3.5073 H   0  0  0  0  0  0  0  0  0  0  0  0
   11.1260   18.8317  -12.5867 H   0  0  0  0  0  0  0  0  0  0  0  0
   15.2437   17.3209  -11.0812 H   0  0  0  0  0  0  0  0  0  0  0  0
   13.8232   20.5035   -3.4096 H   0  0  0  0  0  0  0  0  0  0  0  0
   13.5485   17.3290   -5.3848 H   0  0  0  0  0  0  0  0  0  0  0  0
   15.1978   17.3627   -3.8761 H   0  0  0  0  0  0  0  0  0  0  0  0
   14.4255   20.2699   -5.7444 H   0  0  0  0  0  0  0  0  0  0  0  0
   15.4972   18.5452   -7.2205 H   0  0  0  0  0  0  0  0  0  0  0  0
   14.5543   19.8193   -8.0764 H   0  0  0  0  0  0  0  0  0  0  0  0
   15.7781    7.6890  -15.3028 H   0  0  0  0  0  0  0  0  0  0  0  0
   17.5494    7.3968  -15.4100 H   0  0  0  0  0  0  0  0  0  0  0  0
   13.0662   11.7320  -15.2477 H   0  0  0  0  0  0  0  0  0  0  0  0
  4  3  1  0
  1  4  1  6
  5  3  1  0
  6  5  1  0
  7  5  1  0
  7  8  1  0
  9  7  1  0
  9 10  1  0
 11  9  1  0
 11  6  1  0
 14  1  2  0
 15  2  2  0
 12 16  1  0
 17 13  2  0
 18 12  1  0
 19  1  1  0
  2 20  1  1
 18 21  1  0
 22 18  1  0
 23 17  1  0
 24  1  1  0
 24  2  1  0
 22 25  1  0
 26 23  2  0
 27 22  1  0
 28 27  1  0
 28 12  1  0
 29 26  1  0
 27 30  1  0
 31 30  1  0
 31  2  1  0
 32 29  2  0
 32 13  1  0
 33 32  1  0
 34 29  1  0
 35 34  2  0
 36 35  1  0
 11 36  1  0
 36 26  1  0
  3 37  1  0
  3 38  1  0
  5 39  1  1
  7 40  1  1
  8 41  1  0
  9 42  1  6
 10 43  1  0
 11 44  1  6
 12 45  1  1
 16 46  1  0
 17 47  1  0
 18 48  1  1
 19 49  1  0
 20 50  1  0
 21 51  1  0
 22 52  1  6
 25 53  1  0
 27 54  1  1
 30 55  1  0
 30 56  1  0
 33 57  1  0
 33 58  1  0
 35 59  1  0
M  END
