
     RDKit          3D

 49 52  0  0  0  0  0  0  0  0999 V2000
   27.1073    4.9154    4.5094 C   0  0  0  0  0  0  0  0  0  0  0  0
   26.2566    6.1453    4.7874 C   0  0  0  0  0  0  0  0  0  0  0  0
   24.8923    5.9443    4.2228 C   0  0  0  0  0  0  0  0  0  0  0  0
   24.2527    6.9295    3.7760 O   0  0  0  0  0  0  0  0  0  0  0  0
   24.2814    4.6090    4.2108 C   0  0  0  0  0  0  0  0  0  0  0  0
   24.9831    3.5104    4.5367 C   0  0  0  0  0  0  0  0  0  0  0  0
   24.2766    2.1775    4.5760 C   0  0  0  0  0  0  0  0  0  0  0  0
   25.1156    1.1212    3.8691 C   0  0  0  0  0  0  0  0  0  0  0  0
   26.5104    1.0293    4.5113 C   0  0  2  0  0  0  0  0  0  0  0  0
   27.2487    2.3981    4.3823 C   0  0  1  0  0  0  0  0  0  0  0  0
   26.4429    3.5917    5.0030 C   0  0  1  0  0  0  0  0  0  0  0  0
   28.7220    2.3160    4.8880 C   0  0  0  0  0  0  0  0  0  0  0  0
   29.5135    1.1723    4.2242 C   0  0  0  0  0  0  0  0  0  0  0  0
   28.7746   -0.1690    4.3780 C   0  0  1  0  0  0  0  0  0  0  0  0
   27.3628   -0.0305    3.7965 C   0  0  1  0  0  0  0  0  0  0  0  0
   26.8532   -1.4617    3.7089 C   0  0  0  0  0  0  0  0  0  0  0  0
   28.1145   -2.2696    3.3486 C   0  0  0  0  0  0  0  0  0  0  0  0
   29.3103   -1.2976    3.4788 C   0  0  2  0  0  0  0  0  0  0  0  0
   30.4521   -1.9233    4.0068 O   0  0  0  0  0  0  0  0  0  0  0  0
   28.7954   -0.6108    5.8733 C   0  0  0  0  0  0  0  0  0  0  0  0
   26.4406    3.5532    6.5510 C   0  0  0  0  0  0  0  0  0  0  0  0
   28.0870    5.0783    5.0056 H   0  0  0  0  0  0  0  0  0  0  0  0
   27.2929    4.8721    3.4124 H   0  0  0  0  0  0  0  0  0  0  0  0
   26.7336    7.0329    4.3172 H   0  0  0  0  0  0  0  0  0  0  0  0
   26.1821    6.3338    5.8789 H   0  0  0  0  0  0  0  0  0  0  0  0
   23.2436    4.5268    3.9097 H   0  0  0  0  0  0  0  0  0  0  0  0
   24.1069    1.8822    5.6339 H   0  0  0  0  0  0  0  0  0  0  0  0
   23.2828    2.2247    4.0783 H   0  0  0  0  0  0  0  0  0  0  0  0
   24.5918    0.1453    3.9595 H   0  0  0  0  0  0  0  0  0  0  0  0
   25.1970    1.3708    2.7874 H   0  0  0  0  0  0  0  0  0  0  0  0
   26.3802    0.7460    5.5751 H   0  0  0  0  0  0  0  0  0  0  0  0
   27.3191    2.6014    3.2876 H   0  0  0  0  0  0  0  0  0  0  0  0
   29.2644    3.2518    4.6473 H   0  0  0  0  0  0  0  0  0  0  0  0
   28.7570    2.1982    5.9888 H   0  0  0  0  0  0  0  0  0  0  0  0
   30.5279    1.1083    4.6751 H   0  0  0  0  0  0  0  0  0  0  0  0
   29.6475    1.4135    3.1463 H   0  0  0  0  0  0  0  0  0  0  0  0
   27.4534    0.3159    2.7354 H   0  0  0  0  0  0  0  0  0  0  0  0
   26.4286   -1.7944    4.6811 H   0  0  0  0  0  0  0  0  0  0  0  0
   26.0785   -1.5641    2.9181 H   0  0  0  0  0  0  0  0  0  0  0  0
   28.0491   -2.6576    2.3088 H   0  0  0  0  0  0  0  0  0  0  0  0
   28.2234   -3.1302    4.0445 H   0  0  0  0  0  0  0  0  0  0  0  0
   29.5527   -0.8868    2.4688 H   0  0  0  0  0  0  0  0  0  0  0  0
   31.1149   -1.2035    4.1737 H   0  0  0  0  0  0  0  0  0  0  0  0
   28.2532    0.0858    6.5396 H   0  0  0  0  0  0  0  0  0  0  0  0
   29.8433   -0.6611    6.2388 H   0  0  0  0  0  0  0  0  0  0  0  0
   28.3522   -1.6168    6.0201 H   0  0  0  0  0  0  0  0  0  0  0  0
   26.6504    2.5347    6.9347 H   0  0  0  0  0  0  0  0  0  0  0  0
   25.4508    3.8576    6.9528 H   0  0  0  0  0  0  0  0  0  0  0  0
   27.1964    4.2472    6.9742 H   0  0  0  0  0  0  0  0  0  0  0  0
  2  1  1  0
  3  2  1  0
  4  3  2  0
  5  3  1  0
  6  5  2  0
  7  6  1  0
  8  7  1  0
  9  8  1  0
 10  9  1  0
 11  6  1  0
 11  1  1  0
 11 10  1  0
 10 12  1  0
 13 12  1  0
 14 13  1  0
 15  9  1  0
 15 14  1  0
 15 16  1  0
 17 16  1  0
 18 17  1  0
 18 14  1  0
 18 19  1  0
 14 20  1  1
 11 21  1  1
  1 22  1  0
  1 23  1  0
  2 24  1  0
  2 25  1  0
  5 26  1  0
  7 27  1  0
  7 28  1  0
  8 29  1  0
  8 30  1  0
  9 31  1  1
 10 32  1  6
 12 33  1  0
 12 34  1  0
 13 35  1  0
 13 36  1  0
 15 37  1  6
 16 38  1  0
 16 39  1  0
 17 40  1  0
 17 41  1  0
 18 42  1  6
 19 43  1  0
 20 44  1  0
 20 45  1  0
 20 46  1  0
 21 47  1  0
 21 48  1  0
 21 49  1  0
M  END
