
     RDKit          3D

 32 31  0  0  0  0  0  0  0  0999 V2000
   50.0075   34.7013   36.7545 N   0  0  0  0  0  0  0  0  0  0  0  0
   55.6463   34.4417   31.8882 C   0  0  0  0  0  0  0  0  0  0  0  0
   47.1079   33.6279   33.0806 O   0  0  0  0  0  0  0  0  0  0  0  0
   49.4878   34.5563   35.0937 P   0  0  1  0  0  0  0  0  0  0  0  0
   54.9765   33.0874   31.8568 C   0  0  2  0  0  0  0  0  0  0  0  0
   50.8045   34.6667   33.9571 N   0  0  0  0  0  0  0  0  0  0  0  0
   49.1589   32.4311   32.4941 O   0  0  0  0  0  0  0  0  0  0  0  0
   54.0169   32.8787   33.0562 C   0  0  0  0  0  0  0  0  0  0  0  0
   48.8317   32.9387   34.9972 N   0  0  0  0  0  0  0  0  0  0  0  0
   47.2482   31.1112   33.6458 O   0  0  0  0  0  0  0  0  0  0  0  0
   52.8510   33.8655   33.0312 C   0  0  0  0  0  0  0  0  0  0  0  0
   56.0070   32.0474   31.8684 N   0  0  0  0  0  0  0  0  0  0  0  0
   48.4726   35.6328   34.7934 O   0  0  0  0  0  0  0  0  0  0  0  0
   51.8402   33.6606   34.1646 C   0  0  0  0  0  0  0  0  0  0  0  0
   55.3630   35.3197   31.0285 O   0  0  0  0  0  0  0  0  0  0  0  0
   56.6025   34.7117   32.8525 O   0  0  0  0  0  0  0  0  0  0  0  0
   48.0620   32.5609   33.5097 S   0  0  0  0  0  0  0  0  0  0  0  0
   50.5785   33.8534   36.9693 H   0  0  0  0  0  0  0  0  0  0  0  0
   50.6497   35.5231   36.8073 H   0  0  0  0  0  0  0  0  0  0  0  0
   54.3898   32.9964   30.9133 H   0  0  0  0  0  0  0  0  0  0  0  0
   51.2463   35.5993   34.1201 H   0  0  0  0  0  0  0  0  0  0  0  0
   53.6073   31.8453   33.0197 H   0  0  0  0  0  0  0  0  0  0  0  0
   54.5788   32.9913   34.0096 H   0  0  0  0  0  0  0  0  0  0  0  0
   48.1068   32.8582   35.7453 H   0  0  0  0  0  0  0  0  0  0  0  0
   47.9455   30.4455   33.8732 H   0  0  0  0  0  0  0  0  0  0  0  0
   53.2566   34.8991   33.0968 H   0  0  0  0  0  0  0  0  0  0  0  0
   52.3205   33.7674   32.0577 H   0  0  0  0  0  0  0  0  0  0  0  0
   55.9281   31.5128   32.7643 H   0  0  0  0  0  0  0  0  0  0  0  0
   55.7922   31.3610   31.1080 H   0  0  0  0  0  0  0  0  0  0  0  0
   52.3317   33.7972   35.1540 H   0  0  0  0  0  0  0  0  0  0  0  0
   51.4063   32.6401   34.0913 H   0  0  0  0  0  0  0  0  0  0  0  0
   56.6790   34.1384   33.6842 H   0  0  0  0  0  0  0  0  0  0  0  0
  4  1  1  1
  5  2  1  0
  6  4  1  0
  8  5  1  0
  9  4  1  0
 11  8  1  0
  5 12  1  0
 13  4  2  0
 14 11  1  0
 14  6  1  0
 15  2  2  0
 16  2  1  0
 17  7  2  0
 17  3  2  0
 17 10  1  0
 17  9  1  0
  1 18  1  0
  1 19  1  0
  5 20  1  6
  6 21  1  0
  8 22  1  0
  8 23  1  0
  9 24  1  0
 10 25  1  0
 11 26  1  0
 11 27  1  0
 12 28  1  0
 12 29  1  0
 14 30  1  0
 14 31  1  0
 16 32  1  0
M  END
