
     RDKit          3D

 32 31  0  0  0  0  0  0  0  0999 V2000
   33.6697   42.1155    8.0085 N   0  0  0  0  0  0  0  0  0  0  0  0
   36.9688   36.9409    3.4268 C   0  0  0  0  0  0  0  0  0  0  0  0
   35.3772   37.5858   10.4376 O   0  0  0  0  0  0  0  0  0  0  0  0
   33.5788   40.3793    7.8494 P   0  0  1  0  0  0  0  0  0  0  0  0
   35.5851   36.5054    3.0061 C   0  0  2  0  0  0  0  0  0  0  0  0
   34.4443   39.7832    6.4596 N   0  0  0  0  0  0  0  0  0  0  0  0
   36.8095   38.8439    8.7031 O   0  0  0  0  0  0  0  0  0  0  0  0
   34.4854   36.9613    4.0012 C   0  0  0  0  0  0  0  0  0  0  0  0
   34.3735   39.7726    9.2801 N   0  0  0  0  0  0  0  0  0  0  0  0
   34.8590   37.5721    7.8965 O   0  0  0  0  0  0  0  0  0  0  0  0
   35.0140   37.9831    5.0045 C   0  0  0  0  0  0  0  0  0  0  0  0
   35.5697   35.0477    2.8639 N   0  0  0  0  0  0  0  0  0  0  0  0
   32.1316   39.9608    7.7583 O   0  0  0  0  0  0  0  0  0  0  0  0
   33.9496   38.4988    5.9786 C   0  0  0  0  0  0  0  0  0  0  0  0
   37.5941   37.8199    2.7733 O   0  0  0  0  0  0  0  0  0  0  0  0
   37.5674   36.3540    4.5287 O   0  0  0  0  0  0  0  0  0  0  0  0
   35.4051   38.4296    9.0027 S   0  0  0  0  0  0  0  0  0  0  0  0
   34.6792   42.3594    8.1192 H   0  0  0  0  0  0  0  0  0  0  0  0
   33.1960   42.3656    8.9053 H   0  0  0  0  0  0  0  0  0  0  0  0
   35.9241   36.7770   10.2698 H   0  0  0  0  0  0  0  0  0  0  0  0
   35.3643   36.9502    2.0093 H   0  0  0  0  0  0  0  0  0  0  0  0
   35.4279   39.6319    6.7768 H   0  0  0  0  0  0  0  0  0  0  0  0
   34.0854   36.0800    4.5497 H   0  0  0  0  0  0  0  0  0  0  0  0
   33.6479   37.4208    3.4318 H   0  0  0  0  0  0  0  0  0  0  0  0
   34.9709   40.5476    9.6462 H   0  0  0  0  0  0  0  0  0  0  0  0
   35.4368   38.8479    4.4461 H   0  0  0  0  0  0  0  0  0  0  0  0
   35.8379   37.5167    5.5884 H   0  0  0  0  0  0  0  0  0  0  0  0
   34.8970   34.6347    3.5512 H   0  0  0  0  0  0  0  0  0  0  0  0
   35.2212   34.8079    1.9070 H   0  0  0  0  0  0  0  0  0  0  0  0
   32.9857   38.6351    5.4411 H   0  0  0  0  0  0  0  0  0  0  0  0
   33.8175   37.7853    6.8228 H   0  0  0  0  0  0  0  0  0  0  0  0
   38.4970   36.6279    4.8234 H   0  0  0  0  0  0  0  0  0  0  0  0
  4  1  1  1
  5  2  1  0
  6  4  1  0
  8  5  1  0
  9  4  1  0
 11  8  1  0
  5 12  1  0
 13  4  2  0
 14 11  1  0
 14  6  1  0
 15  2  2  0
 16  2  1  0
 17  7  2  0
 17 10  2  0
 17  9  1  0
 17  3  1  0
  1 18  1  0
  1 19  1  0
  3 20  1  0
  5 21  1  6
  6 22  1  0
  8 23  1  0
  8 24  1  0
  9 25  1  0
 11 26  1  0
 11 27  1  0
 12 28  1  0
 12 29  1  0
 14 30  1  0
 14 31  1  0
 16 32  1  0
M  END
