
     RDKit          3D

 32 31  0  0  0  0  0  0  0  0999 V2000
   49.7493   34.6552   36.3158 N   0  0  0  0  0  0  0  0  0  0  0  0
   55.3445   34.1921   30.9851 C   0  0  0  0  0  0  0  0  0  0  0  0
   48.2203   32.7752   32.0010 O   0  0  0  0  0  0  0  0  0  0  0  0
   49.4354   34.3287   34.6293 P   0  0  1  0  0  0  0  0  0  0  0  0
   55.6066   34.3336   32.4667 C   0  0  2  0  0  0  0  0  0  0  0  0
   50.8676   33.8721   33.7472 N   0  0  0  0  0  0  0  0  0  0  0  0
   46.7316   31.4162   33.3867 O   0  0  0  0  0  0  0  0  0  0  0  0
   54.4329   35.0236   33.2077 C   0  0  0  0  0  0  0  0  0  0  0  0
   48.3628   32.9486   34.6598 N   0  0  0  0  0  0  0  0  0  0  0  0
   46.2477   33.9543   33.1806 O   0  0  0  0  0  0  0  0  0  0  0  0
   53.1508   34.1957   33.1391 C   0  0  0  0  0  0  0  0  0  0  0  0
   56.8319   35.1115   32.6601 N   0  0  0  0  0  0  0  0  0  0  0  0
   48.8201   35.5510   33.9912 O   0  0  0  0  0  0  0  0  0  0  0  0
   51.9754   34.8073   33.9090 C   0  0  0  0  0  0  0  0  0  0  0  0
   55.2547   33.0521   30.4535 O   0  0  0  0  0  0  0  0  0  0  0  0
   55.2311   35.3252   30.1975 O   0  0  0  0  0  0  0  0  0  0  0  0
   47.4016   32.7519   33.2509 S   0  0  0  0  0  0  0  0  0  0  0  0
   50.1552   33.7835   36.7236 H   0  0  0  0  0  0  0  0  0  0  0  0
   50.4937   35.3865   36.3563 H   0  0  0  0  0  0  0  0  0  0  0  0
   55.7560   33.3197   32.9054 H   0  0  0  0  0  0  0  0  0  0  0  0
   50.5993   33.8867   32.7377 H   0  0  0  0  0  0  0  0  0  0  0  0
   54.7081   35.1629   34.2762 H   0  0  0  0  0  0  0  0  0  0  0  0
   54.2506   36.0285   32.7668 H   0  0  0  0  0  0  0  0  0  0  0  0
   47.7063   33.0899   35.4602 H   0  0  0  0  0  0  0  0  0  0  0  0
   45.7103   33.8433   34.0052 H   0  0  0  0  0  0  0  0  0  0  0  0
   52.8575   34.0795   32.0726 H   0  0  0  0  0  0  0  0  0  0  0  0
   53.3575   33.1820   33.5495 H   0  0  0  0  0  0  0  0  0  0  0  0
   56.5800   36.0175   33.1188 H   0  0  0  0  0  0  0  0  0  0  0  0
   57.4398   34.6053   33.3454 H   0  0  0  0  0  0  0  0  0  0  0  0
   51.7142   35.8057   33.4919 H   0  0  0  0  0  0  0  0  0  0  0  0
   52.2470   34.9011   34.9826 H   0  0  0  0  0  0  0  0  0  0  0  0
   55.0641   35.2517   29.2011 H   0  0  0  0  0  0  0  0  0  0  0  0
  4  1  1  1
  5  2  1  0
  6  4  1  0
  8  5  1  0
  9  4  1  0
 11  8  1  0
  5 12  1  0
 13  4  2  0
 14 11  1  0
 14  6  1  0
 15  2  2  0
 16  2  1  0
 17  7  2  0
 17  3  2  0
 17 10  1  0
 17  9  1  0
  1 18  1  0
  1 19  1  0
  5 20  1  1
  6 21  1  0
  8 22  1  0
  8 23  1  0
  9 24  1  0
 10 25  1  0
 11 26  1  0
 11 27  1  0
 12 28  1  0
 12 29  1  0
 14 30  1  0
 14 31  1  0
 16 32  1  0
M  END
