
     RDKit          3D

 18 17  0  0  0  0  0  0  0  0999 V2000
   32.6908   50.5960   19.5660 P   0  0  0  0  0  0  0  0  0  0  0  0
   32.4474   51.2567   21.0922 O   0  0  0  0  0  0  0  0  0  0  0  0
   31.3066   50.2955   19.0473 O   0  0  0  0  0  0  0  0  0  0  0  0
   33.4628   51.6555   18.5195 O   0  0  0  0  0  0  0  0  0  0  0  0
   33.5803   49.1829   19.7027 O   0  0  0  0  0  0  0  0  0  0  0  0
   32.7911   53.0021   22.5638 C   0  0  0  0  0  0  0  0  0  0  0  0
   31.6559   52.6772   23.0121 O   0  0  0  0  0  0  0  0  0  0  0  0
   33.4424   52.1585   21.5015 C   0  0  1  0  0  0  0  0  0  0  0  0
   33.4268   54.1272   23.0591 O   0  0  0  0  0  0  0  0  0  0  0  0
   34.6848   51.4204   22.0587 C   0  0  0  0  0  0  0  0  0  0  0  0
   34.9727   50.2607   21.3213 O   0  0  0  0  0  0  0  0  0  0  0  0
   32.7404   52.2345   18.1676 H   0  0  0  0  0  0  0  0  0  0  0  0
   34.2827   49.2565   19.0082 H   0  0  0  0  0  0  0  0  0  0  0  0
   33.7461   52.8406   20.6753 H   0  0  0  0  0  0  0  0  0  0  0  0
   32.9221   54.9963   23.1864 H   0  0  0  0  0  0  0  0  0  0  0  0
   35.5574   52.1086   22.0127 H   0  0  0  0  0  0  0  0  0  0  0  0
   34.5288   51.1604   23.1301 H   0  0  0  0  0  0  0  0  0  0  0  0
   34.4909   50.3556   20.4589 H   0  0  0  0  0  0  0  0  0  0  0  0
  2  1  1  0
  3  1  2  0
  4  1  1  0
  5  1  1  0
  7  6  2  0
  8  2  1  0
  8  6  1  0
  9  6  1  0
  8 10  1  0
 11 10  1  0
  4 12  1  0
  5 13  1  0
  8 14  1  6
  9 15  1  0
 10 16  1  0
 10 17  1  0
 11 18  1  0
M  END
