
     RDKit          3D

 71 72  0  0  0  0  0  0  0  0999 V2000
   -7.8308   23.1237  -12.3386 N   0  0  0  0  0  0  0  0  0  0  0  0
   -9.1987   23.2970  -12.7821 C   0  0  2  0  0  0  0  0  0  0  0  0
   -2.7016   26.0385  -10.2489 C   0  0  0  0  0  0  0  0  0  0  0  0
   -3.1992   21.7385  -13.8759 C   0  0  0  0  0  0  0  0  0  0  0  0
   -5.9047   25.5164   -9.7810 C   0  0  0  0  0  0  0  0  0  0  0  0
   -9.1987   26.8984  -10.3083 C   0  0  0  0  0  0  0  0  0  0  0  0
   -9.2648   25.9352   -8.0880 C   0  0  0  0  0  0  0  0  0  0  0  0
  -10.4462   26.3324  -10.5900 C   0  0  0  0  0  0  0  0  0  0  0  0
  -10.5078   25.3624   -8.3700 C   0  0  0  0  0  0  0  0  0  0  0  0
   -3.5571   24.7846  -10.3871 C   0  0  0  0  0  0  0  0  0  0  0  0
  -12.4576   24.9311   -9.9278 C   0  0  0  0  0  0  0  0  0  0  0  0
   -4.0492   22.1462  -12.7238 C   0  0  0  0  0  0  0  0  0  0  0  0
  -10.1081   22.9949  -11.6414 C   0  0  0  0  0  0  0  0  0  0  0  0
   -9.7310   22.2608  -10.6859 O   0  0  0  0  0  0  0  0  0  0  0  0
   -4.6597   23.4332  -12.7399 N   0  0  0  0  0  0  0  0  0  0  0  0
  -11.4082   23.5605  -11.6518 N   0  0  0  0  0  0  0  0  0  0  0  0
   -4.1717   21.3852  -11.7259 O   0  0  0  0  0  0  0  0  0  0  0  0
   -7.1135   25.2900  -12.8462 O   0  0  0  0  0  0  0  0  0  0  0  0
  -13.6115   21.1939  -11.5746 O   0  0  0  0  0  0  0  0  0  0  0  0
   -7.3746   27.2832   -8.7775 O   0  0  0  0  0  0  0  0  0  0  0  0
  -14.7918   22.7041   -9.8108 O   0  0  0  0  0  0  0  0  0  0  0  0
  -14.5297   23.7154  -12.2076 O   0  0  0  0  0  0  0  0  0  0  0  0
   -9.4669   22.3743  -13.9764 C   0  0  0  0  0  0  0  0  0  0  0  0
   -6.8770   24.1732  -12.3068 C   0  0  0  0  0  0  0  0  0  0  0  0
   -8.6105   26.7084   -9.0543 C   0  0  0  0  0  0  0  0  0  0  0  0
  -11.1180   25.5690   -9.6170 C   0  0  0  0  0  0  0  0  0  0  0  0
   -4.9722   25.1039  -10.9375 C   0  0  1  0  0  0  0  0  0  0  0  0
  -12.2804   23.5132  -10.4933 C   0  0  2  0  0  0  0  0  0  0  0  0
   -5.5521   23.8853  -11.6817 C   0  0  2  0  0  0  0  0  0  0  0  0
   -8.7553   22.8976  -15.2000 C   0  0  0  0  0  0  0  0  0  0  0  0
   -9.4608   23.6465  -16.1544 C   0  0  0  0  0  0  0  0  0  0  0  0
   -7.3731   22.7004  -15.3659 C   0  0  0  0  0  0  0  0  0  0  0  0
   -8.8014   24.1659  -17.2709 C   0  0  0  0  0  0  0  0  0  0  0  0
   -6.7139   23.2317  -16.4771 C   0  0  0  0  0  0  0  0  0  0  0  0
   -7.4291   23.9588  -17.4363 C   0  0  0  0  0  0  0  0  0  0  0  0
   -6.7870   24.4758  -18.5566 O   0  0  0  0  0  0  0  0  0  0  0  0
  -13.8545   22.7569  -10.9998 P   0  0  0  0  0  0  0  0  0  0  0  0
   -7.5344   22.1623  -12.0507 H   0  0  0  0  0  0  0  0  0  0  0  0
   -9.3811   24.3510  -13.0910 H   0  0  0  0  0  0  0  0  0  0  0  0
   -1.6991   25.7634   -9.8581 H   0  0  0  0  0  0  0  0  0  0  0  0
   -3.1676   26.7557   -9.5418 H   0  0  0  0  0  0  0  0  0  0  0  0
   -2.5719   26.5293  -11.2371 H   0  0  0  0  0  0  0  0  0  0  0  0
   -2.1912   22.1901  -13.7685 H   0  0  0  0  0  0  0  0  0  0  0  0
   -3.6548   22.0836  -14.8277 H   0  0  0  0  0  0  0  0  0  0  0  0
   -3.1019   20.6327  -13.9103 H   0  0  0  0  0  0  0  0  0  0  0  0
   -6.0581   24.6709   -9.0765 H   0  0  0  0  0  0  0  0  0  0  0  0
   -5.4748   26.3728   -9.2217 H   0  0  0  0  0  0  0  0  0  0  0  0
   -6.8954   25.8312  -10.1667 H   0  0  0  0  0  0  0  0  0  0  0  0
   -8.6910   27.4854  -11.0630 H   0  0  0  0  0  0  0  0  0  0  0  0
   -8.8094   25.7736   -7.1193 H   0  0  0  0  0  0  0  0  0  0  0  0
  -10.8890   26.4872  -11.5659 H   0  0  0  0  0  0  0  0  0  0  0  0
  -10.9977   24.7598   -7.6153 H   0  0  0  0  0  0  0  0  0  0  0  0
   -3.6244   24.2698   -9.4035 H   0  0  0  0  0  0  0  0  0  0  0  0
   -2.9968   24.1049  -11.0602 H   0  0  0  0  0  0  0  0  0  0  0  0
  -13.0718   24.8883   -9.0022 H   0  0  0  0  0  0  0  0  0  0  0  0
  -13.0087   25.5640  -10.6571 H   0  0  0  0  0  0  0  0  0  0  0  0
   -4.4467   24.0832  -13.5314 H   0  0  0  0  0  0  0  0  0  0  0  0
  -11.7177   24.1068  -12.4885 H   0  0  0  0  0  0  0  0  0  0  0  0
  -13.0213   21.2970  -12.3628 H   0  0  0  0  0  0  0  0  0  0  0  0
   -6.9201   27.1579   -7.8805 H   0  0  0  0  0  0  0  0  0  0  0  0
  -14.0473   23.4659  -13.0357 H   0  0  0  0  0  0  0  0  0  0  0  0
  -10.5610   22.3195  -14.1724 H   0  0  0  0  0  0  0  0  0  0  0  0
   -9.1263   21.3388  -13.7537 H   0  0  0  0  0  0  0  0  0  0  0  0
   -4.9073   25.9506  -11.6583 H   0  0  0  0  0  0  0  0  0  0  0  0
  -11.8547   22.8731   -9.6905 H   0  0  0  0  0  0  0  0  0  0  0  0
   -5.6754   23.0798  -10.9250 H   0  0  0  0  0  0  0  0  0  0  0  0
  -10.5216   23.8293  -16.0352 H   0  0  0  0  0  0  0  0  0  0  0  0
   -6.8075   22.1288  -14.6410 H   0  0  0  0  0  0  0  0  0  0  0  0
   -9.3564   24.7343  -18.0063 H   0  0  0  0  0  0  0  0  0  0  0  0
   -5.6509   23.0672  -16.5973 H   0  0  0  0  0  0  0  0  0  0  0  0
   -7.2690   25.0808  -19.2113 H   0  0  0  0  0  0  0  0  0  0  0  0
  2  1  1  0
  8  6  2  0
  9  7  1  0
 10  3  1  0
 12  4  1  0
 13  2  1  0
 14 13  2  0
 15 12  1  0
 16 13  1  0
 17 12  2  0
  2 23  1  0
 24 18  2  0
 24  1  1  0
 25 20  1  0
 25  7  2  0
 25  6  1  0
 26 11  1  0
 26  9  2  0
 26  8  1  0
 27  5  1  0
 27 10  1  0
 28 16  1  0
 28 11  1  0
 29 27  1  0
 29 24  1  0
 29 15  1  0
 30 23  1  0
 31 30  2  0
 32 30  1  0
 33 31  1  0
 34 32  2  0
 35 34  1  0
 35 33  2  0
 36 35  1  0
 37 21  2  0
 37 19  1  0
 37 28  1  0
 37 22  1  0
  1 38  1  0
  2 39  1  6
  3 40  1  0
  3 41  1  0
  3 42  1  0
  4 43  1  0
  4 44  1  0
  4 45  1  0
  5 46  1  0
  5 47  1  0
  5 48  1  0
  6 49  1  0
  7 50  1  0
  8 51  1  0
  9 52  1  0
 10 53  1  0
 10 54  1  0
 11 55  1  0
 11 56  1  0
 15 57  1  0
 16 58  1  0
 19 59  1  0
 20 60  1  0
 22 61  1  0
 23 62  1  0
 23 63  1  0
 27 64  1  6
 28 65  1  1
 29 66  1  1
 31 67  1  0
 32 68  1  0
 33 69  1  0
 34 70  1  0
 36 71  1  0
M  END
