
     RDKit          3D

 49 51  0  0  0  0  0  0  0  0999 V2000
   10.0711  -18.3434 -105.3722 P   0  0  2  0  0  0  0  0  0  0  0  0
    9.8982  -15.5891 -104.9180 P   0  0  1  0  0  0  0  0  0  0  0  0
   10.9582  -14.3293 -102.4261 P   0  0  0  0  0  0  0  0  0  0  0  0
    9.8430  -20.1976 -103.5854 C   0  0  0  0  0  0  0  0  0  0  0  0
    9.2967  -18.9958 -104.0314 O   0  0  0  0  0  0  0  0  0  0  0  0
    8.7706  -20.8599 -102.7056 C   0  0  1  0  0  0  0  0  0  0  0  0
    8.1430  -19.8868 -101.8794 O   0  0  0  0  0  0  0  0  0  0  0  0
    7.6765  -21.5251 -103.5429 C   0  0  1  0  0  0  0  0  0  0  0  0
    7.9892  -22.8506 -103.8833 O   0  0  0  0  0  0  0  0  0  0  0  0
    6.4931  -21.4311 -102.6113 C   0  0  1  0  0  0  0  0  0  0  0  0
    6.5571  -22.4126 -101.6078 O   0  0  0  0  0  0  0  0  0  0  0  0
    6.7400  -20.0808 -101.9579 C   0  0  2  0  0  0  0  0  0  0  0  0
    2.2334  -17.9675 -103.1757 N   0  0  0  0  0  0  0  0  0  0  0  0
    9.9303  -19.2515 -106.5724 O   0  0  0  0  0  0  0  0  0  0  0  0
    9.3090  -14.3891 -105.6232 O   0  0  0  0  0  0  0  0  0  0  0  0
   11.3768  -13.2365 -103.3851 O   0  0  0  0  0  0  0  0  0  0  0  0
    2.4997  -19.0233 -102.3486 C   0  0  0  0  0  0  0  0  0  0  0  0
   11.6941  -18.1050 -105.0338 O   0  0  0  0  0  0  0  0  0  0  0  0
   11.5310  -15.7051 -105.2817 O   0  0  0  0  0  0  0  0  0  0  0  0
   10.3363  -13.6511 -101.0253 O   0  0  0  0  0  0  0  0  0  0  0  0
    9.6428  -15.3613 -103.1240 C   0  0  0  0  0  0  0  0  0  0  0  0
    3.7819  -19.4450 -102.1562 N   0  0  0  0  0  0  0  0  0  0  0  0
    9.1644  -16.9346 -105.6142 O   0  0  0  0  0  0  0  0  0  0  0  0
   12.3214  -15.2465 -102.0568 O   0  0  0  0  0  0  0  0  0  0  0  0
    4.7684  -18.8047 -102.8274 C   0  0  0  0  0  0  0  0  0  0  0  0
    4.5301  -17.7662 -103.6556 C   0  0  0  0  0  0  0  0  0  0  0  0
    3.2296  -17.3149 -103.8370 C   0  0  0  0  0  0  0  0  0  0  0  0
    2.9284  -16.1885 -104.6475 N   0  0  0  0  0  0  0  0  0  0  0  0
    5.6857  -17.2561 -104.1117 N   0  0  0  0  0  0  0  0  0  0  0  0
    6.6193  -18.0364 -103.5101 C   0  0  0  0  0  0  0  0  0  0  0  0
    6.0861  -19.0158 -102.7327 N   0  0  0  0  0  0  0  0  0  0  0  0
   10.1076  -20.8814 -104.4237 H   0  0  0  0  0  0  0  0  0  0  0  0
   10.7489  -19.9915 -102.9754 H   0  0  0  0  0  0  0  0  0  0  0  0
    9.2594  -21.6174 -102.0526 H   0  0  0  0  0  0  0  0  0  0  0  0
    7.4455  -20.9389 -104.4647 H   0  0  0  0  0  0  0  0  0  0  0  0
    7.3837  -23.1004 -104.6287 H   0  0  0  0  0  0  0  0  0  0  0  0
    5.5229  -21.4787 -103.1591 H   0  0  0  0  0  0  0  0  0  0  0  0
    5.6553  -22.8241 -101.5558 H   0  0  0  0  0  0  0  0  0  0  0  0
    6.3229  -20.0712 -100.9263 H   0  0  0  0  0  0  0  0  0  0  0  0
    1.6889  -19.5189 -101.8330 H   0  0  0  0  0  0  0  0  0  0  0  0
   12.1409  -18.0771 -105.9170 H   0  0  0  0  0  0  0  0  0  0  0  0
   11.6442  -16.6134 -105.6599 H   0  0  0  0  0  0  0  0  0  0  0  0
    9.4660  -14.1031 -100.8864 H   0  0  0  0  0  0  0  0  0  0  0  0
    9.5853  -16.2840 -102.5351 H   0  0  0  0  0  0  0  0  0  0  0  0
    8.6701  -14.8486 -102.9763 H   0  0  0  0  0  0  0  0  0  0  0  0
   12.3060  -15.9966 -102.7033 H   0  0  0  0  0  0  0  0  0  0  0  0
    2.4264  -16.3128 -105.5546 H   0  0  0  0  0  0  0  0  0  0  0  0
    3.2043  -15.2252 -104.3531 H   0  0  0  0  0  0  0  0  0  0  0  0
    7.6502  -17.7521 -103.5007 H   0  0  0  0  0  0  0  0  0  0  0  0
  5  4  1  0
  1  5  1  1
  6  4  1  0
  7  6  1  0
  8  6  1  0
  8  9  1  0
 10  8  1  0
 10 11  1  0
 12 10  1  0
 12  7  1  0
 14  1  2  0
 15  2  2  0
 16  3  2  0
 17 13  2  0
 18  1  1  0
  2 19  1  1
 20  3  1  0
 21  2  1  0
 21  3  1  0
 22 17  1  0
 23  1  1  0
 23  2  1  0
 24  3  1  0
 25 22  2  0
 26 25  1  0
 27 26  2  0
 27 13  1  0
 28 27  1  0
 29 26  1  0
 30 29  2  0
 31 25  1  0
 12 31  1  0
 31 30  1  0
  4 32  1  0
  4 33  1  0
  6 34  1  1
  8 35  1  6
  9 36  1  0
 10 37  1  6
 11 38  1  0
 12 39  1  1
 17 40  1  0
 18 41  1  0
 19 42  1  0
 20 43  1  0
 21 44  1  0
 21 45  1  0
 24 46  1  0
 28 47  1  0
 28 48  1  0
 30 49  1  0
M  END
