
     RDKit          3D

 32 33  0  0  0  0  0  0  0  0999 V2000
   10.8486    1.8688   34.0291 N   0  0  0  0  0  0  0  0  0  0  0  0
   10.9517    1.4889   32.7344 C   0  0  0  0  0  0  0  0  0  0  0  0
   12.2400    1.3739   32.1406 N   0  0  0  0  0  0  0  0  0  0  0  0
    9.8255    1.2221   32.0097 N   0  0  0  0  0  0  0  0  0  0  0  0
    8.5825    1.3385   32.5625 C   0  0  0  0  0  0  0  0  0  0  0  0
    8.4648    1.7437   33.8974 C   0  0  0  0  0  0  0  0  0  0  0  0
    7.5564    1.0972   31.8662 O   0  0  0  0  0  0  0  0  0  0  0  0
    7.1922    1.9640   34.5250 N   0  0  0  0  0  0  0  0  0  0  0  0
    7.1451    2.8682   35.6816 C   0  0  2  0  0  0  0  0  0  0  0  0
    8.2774    2.5005   36.6685 C   0  0  0  0  0  0  0  0  0  0  0  0
    9.6384    1.9941   34.6213 C   0  0  0  0  0  0  0  0  0  0  0  0
    9.5608    2.4132   35.9787 N   0  0  0  0  0  0  0  0  0  0  0  0
    5.7398    2.8628   36.3357 C   0  0  1  0  0  0  0  0  0  0  0  0
    5.7492    3.5985   37.5355 O   0  0  0  0  0  0  0  0  0  0  0  0
    4.6585    3.4258   35.3849 C   0  0  1  0  0  0  0  0  0  0  0  0
    3.6997    2.4277   35.1359 O   0  0  0  0  0  0  0  0  0  0  0  0
    3.9684    4.6478   35.9920 C   0  0  0  0  0  0  0  0  0  0  0  0
   12.8746    0.5839   32.3923 H   0  0  0  0  0  0  0  0  0  0  0  0
   12.5654    2.0809   31.4445 H   0  0  0  0  0  0  0  0  0  0  0  0
    9.9147    0.9272   31.0107 H   0  0  0  0  0  0  0  0  0  0  0  0
    6.3128    1.6435   34.0600 H   0  0  0  0  0  0  0  0  0  0  0  0
    7.3503    3.8953   35.3054 H   0  0  0  0  0  0  0  0  0  0  0  0
    8.3638    3.2698   37.4636 H   0  0  0  0  0  0  0  0  0  0  0  0
    8.0607    1.5207   37.1457 H   0  0  0  0  0  0  0  0  0  0  0  0
   10.4399    2.5934   36.5142 H   0  0  0  0  0  0  0  0  0  0  0  0
    5.4740    1.7984   36.5476 H   0  0  0  0  0  0  0  0  0  0  0  0
    6.6306    4.0501   37.5994 H   0  0  0  0  0  0  0  0  0  0  0  0
    5.1362    3.7509   34.4323 H   0  0  0  0  0  0  0  0  0  0  0  0
    3.2235    2.2664   35.9921 H   0  0  0  0  0  0  0  0  0  0  0  0
    3.4740    4.3793   36.9501 H   0  0  0  0  0  0  0  0  0  0  0  0
    3.1979    5.0332   35.2910 H   0  0  0  0  0  0  0  0  0  0  0  0
    4.7047    5.4584   36.1777 H   0  0  0  0  0  0  0  0  0  0  0  0
  2  1  2  0
  3  2  1  0
  4  2  1  0
  5  4  1  0
  6  5  1  0
  7  5  2  0
  8  6  1  0
  9  8  1  0
  9 10  1  0
 11  6  2  0
 11  1  1  0
 12 11  1  0
 12 10  1  0
 13  9  1  0
 13 14  1  0
 15 13  1  0
 16 15  1  0
 15 17  1  0
  3 18  1  0
  3 19  1  0
  4 20  1  0
  8 21  1  0
  9 22  1  6
 10 23  1  0
 10 24  1  0
 12 25  1  0
 13 26  1  1
 14 27  1  0
 15 28  1  6
 16 29  1  0
 17 30  1  0
 17 31  1  0
 17 32  1  0
M  END
