
     RDKit          3D

 13 12  0  0  0  0  0  0  0  0999 V2000
   34.8587    7.0455   13.1350 N   0  0  0  0  0  0  0  0  0  0  0  0
   34.7686    6.5363   11.7776 C   0  0  0  0  0  0  0  0  0  0  0  0
   34.4111    8.4384   13.2566 C   0  0  0  0  0  0  0  0  0  0  0  0
   33.3986    8.8226   12.1760 C   0  0  0  0  0  0  0  0  0  0  0  0
   34.2830    6.4363   13.7626 H   0  0  0  0  0  0  0  0  0  0  0  0
   35.4091    7.1295   11.0898 H   0  0  0  0  0  0  0  0  0  0  0  0
   33.7177    6.5436   11.4171 H   0  0  0  0  0  0  0  0  0  0  0  0
   35.1305    5.4870   11.7594 H   0  0  0  0  0  0  0  0  0  0  0  0
   33.9301    8.5664   14.2501 H   0  0  0  0  0  0  0  0  0  0  0  0
   35.2804    9.1314   13.2227 H   0  0  0  0  0  0  0  0  0  0  0  0
   32.3950    8.9869   12.6223 H   0  0  0  0  0  0  0  0  0  0  0  0
   33.7240    9.7641   11.6855 H   0  0  0  0  0  0  0  0  0  0  0  0
   33.3346    8.0349   11.3972 H   0  0  0  0  0  0  0  0  0  0  0  0
  2  1  1  0
  3  1  1  0
  4  3  1  0
  1  5  1  0
  2  6  1  0
  2  7  1  0
  2  8  1  0
  3  9  1  0
  3 10  1  0
  4 11  1  0
  4 12  1  0
  4 13  1  0
M  END
