
     RDKit          3D

 52 53  0  0  0  0  0  0  0  0999 V2000
   13.0501   72.0677   24.7106 C   0  0  0  0  0  0  0  0  0  0  0  0
   19.6577   72.9730   23.7499 C   0  0  0  0  0  0  0  0  0  0  0  0
   20.8572   78.3670   20.0309 P   0  0  1  0  0  0  0  0  0  0  0  0
   23.1792   79.8815   20.7285 P   0  0  0  0  0  0  0  0  0  0  0  0
   18.4097   73.3901   26.4495 C   0  0  0  0  0  0  0  0  0  0  0  0
   16.6677   71.8080   25.5601 C   0  0  0  0  0  0  0  0  0  0  0  0
   16.9815   73.0969   26.0127 C   0  0  0  0  0  0  0  0  0  0  0  0
   15.9173   74.0379   26.0356 C   0  0  0  0  0  0  0  0  0  0  0  0
   16.0768   75.3573   26.5258 N   0  0  0  0  0  0  0  0  0  0  0  0
   14.6809   73.6798   25.6026 N   0  0  0  0  0  0  0  0  0  0  0  0
   14.4246   72.4328   25.1495 C   0  0  0  0  0  0  0  0  0  0  0  0
   15.4112   71.5045   25.1431 N   0  0  0  0  0  0  0  0  0  0  0  0
   19.3495   78.5040   20.1463 O   0  0  0  0  0  0  0  0  0  0  0  0
   23.6405   80.2850   19.3510 O   0  0  0  0  0  0  0  0  0  0  0  0
   19.6442   76.9375   24.7135 S   0  0  0  0  0  0  0  0  0  0  0  0
   19.0648   75.8880   26.0293 C   0  0  0  0  0  0  0  0  0  0  0  0
   21.3095   78.2936   18.4346 O   0  0  0  0  0  0  0  0  0  0  0  0
   23.4424   81.1452   21.7938 O   0  0  0  0  0  0  0  0  0  0  0  0
   19.0135   74.5044   25.6807 N   0  0  0  0  0  0  0  0  0  0  0  0
   21.5017   79.7354   20.7708 O   0  0  0  0  0  0  0  0  0  0  0  0
   24.0117   78.5456   21.3119 O   0  0  0  0  0  0  0  0  0  0  0  0
   19.5375   74.3377   24.3637 C   0  0  0  0  0  0  0  0  0  0  0  0
   19.9273   75.4696   23.7585 C   0  0  0  0  0  0  0  0  0  0  0  0
   20.4989   75.5444   22.3702 C   0  0  0  0  0  0  0  0  0  0  0  0
   21.1862   76.8706   22.0631 C   0  0  0  0  0  0  0  0  0  0  0  0
   21.3983   76.9082   20.6825 O   0  0  0  0  0  0  0  0  0  0  0  0
   18.8299   76.3723   27.2475 C   0  0  0  0  0  0  0  0  0  0  0  0
   18.8341   77.8380   27.5072 C   0  0  0  0  0  0  0  0  0  0  0  0
   18.5225   75.5499   28.3149 O   0  0  0  0  0  0  0  0  0  0  0  0
   17.5140   78.2955   27.5368 O   0  0  0  0  0  0  0  0  0  0  0  0
   12.3945   71.9622   25.5998 H   0  0  0  0  0  0  0  0  0  0  0  0
   13.0677   71.1066   24.1544 H   0  0  0  0  0  0  0  0  0  0  0  0
   12.6384   72.8555   24.0450 H   0  0  0  0  0  0  0  0  0  0  0  0
   18.6621   72.4889   23.7130 H   0  0  0  0  0  0  0  0  0  0  0  0
   20.0458   72.9962   22.7127 H   0  0  0  0  0  0  0  0  0  0  0  0
   20.3507   72.3522   24.3543 H   0  0  0  0  0  0  0  0  0  0  0  0
   19.0408   72.4878   26.3083 H   0  0  0  0  0  0  0  0  0  0  0  0
   18.4437   73.5049   27.5381 H   0  0  0  0  0  0  0  0  0  0  0  0
   17.4243   71.0345   25.5313 H   0  0  0  0  0  0  0  0  0  0  0  0
   15.2790   76.0267   26.4536 H   0  0  0  0  0  0  0  0  0  0  0  0
   16.7310   75.5069   27.3208 H   0  0  0  0  0  0  0  0  0  0  0  0
   21.0462   79.1703   18.0563 H   0  0  0  0  0  0  0  0  0  0  0  0
   23.9281   81.8287   21.2664 H   0  0  0  0  0  0  0  0  0  0  0  0
   24.9054   78.5997   20.8885 H   0  0  0  0  0  0  0  0  0  0  0  0
   21.2385   74.7258   22.2316 H   0  0  0  0  0  0  0  0  0  0  0  0
   19.6664   75.3964   21.6474 H   0  0  0  0  0  0  0  0  0  0  0  0
   22.1663   76.9108   22.5846 H   0  0  0  0  0  0  0  0  0  0  0  0
   20.5594   77.7121   22.4380 H   0  0  0  0  0  0  0  0  0  0  0  0
   19.3243   78.0277   28.4896 H   0  0  0  0  0  0  0  0  0  0  0  0
   19.4120   78.4437   26.7840 H   0  0  0  0  0  0  0  0  0  0  0  0
   18.3296   75.9197   29.2385 H   0  0  0  0  0  0  0  0  0  0  0  0
   17.1415   78.0572   28.4262 H   0  0  0  0  0  0  0  0  0  0  0  0
  7  6  2  0
  7  5  1  0
  8  7  1  0
  9  8  1  0
 10  8  2  0
 11 10  1  0
 11  1  1  0
 12 11  2  0
 12  6  1  0
 13  3  2  0
 14  4  2  0
 16 15  1  0
  3 17  1  6
 18  4  1  0
 19 16  1  0
 19  5  1  0
 20  3  1  0
 20  4  1  0
 21  4  1  0
 22 19  1  0
 22  2  1  0
 23 22  2  0
 23 15  1  0
 24 23  1  0
 25 24  1  0
 26 25  1  0
 26  3  1  0
 27 16  2  3
 28 27  1  0
 29 27  1  0
 30 28  1  0
  1 31  1  0
  1 32  1  0
  1 33  1  0
  2 34  1  0
  2 35  1  0
  2 36  1  0
  5 37  1  0
  5 38  1  0
  6 39  1  0
  9 40  1  0
  9 41  1  0
 17 42  1  0
 18 43  1  0
 21 44  1  0
 24 45  1  0
 24 46  1  0
 25 47  1  0
 25 48  1  0
 28 49  1  0
 28 50  1  0
 29 51  1  0
 30 52  1  0
M  END
