
     RDKit          3D

 25 24  0  0  0  0  0  0  0  0999 V2000
   21.0014   28.6379   89.0723 C   0  0  0  0  0  0  0  0  0  0  0  0
   23.3869   31.6983   88.2923 N   0  0  0  0  0  0  0  0  0  0  0  0
   20.7485   28.1739   90.2118 O   0  0  0  0  0  0  0  0  0  0  0  0
   21.4610   30.0520   88.9318 C   0  0  0  0  0  0  0  0  0  0  0  0
   22.5085   32.5710   87.5932 N   0  0  0  0  0  0  0  0  0  0  0  0
   21.0934   27.7852   87.9791 O   0  0  0  0  0  0  0  0  0  0  0  0
   22.8701   30.3203   88.4246 C   0  0  0  0  0  0  0  0  0  0  0  0
   22.8462   33.8593   87.0412 C   0  0  0  0  0  0  0  0  0  0  0  0
   21.9130   33.1892   88.7387 C   0  0  0  0  0  0  0  0  0  0  0  0
   22.1214   31.9182   86.3156 C   0  0  0  0  0  0  0  0  0  0  0  0
   24.3097   31.6705   87.7958 H   0  0  0  0  0  0  0  0  0  0  0  0
   21.3629   30.5327   89.9308 H   0  0  0  0  0  0  0  0  0  0  0  0
   20.7469   30.5811   88.2651 H   0  0  0  0  0  0  0  0  0  0  0  0
   20.8685   26.8014   88.0673 H   0  0  0  0  0  0  0  0  0  0  0  0
   23.5288   29.7685   89.1335 H   0  0  0  0  0  0  0  0  0  0  0  0
   22.9392   29.7890   87.4502 H   0  0  0  0  0  0  0  0  0  0  0  0
   23.1350   33.7907   85.9599 H   0  0  0  0  0  0  0  0  0  0  0  0
   22.0337   34.6362   87.0874 H   0  0  0  0  0  0  0  0  0  0  0  0
   23.8215   34.2990   87.3939 H   0  0  0  0  0  0  0  0  0  0  0  0
   20.8331   33.3856   88.5470 H   0  0  0  0  0  0  0  0  0  0  0  0
   22.2370   34.2485   88.9342 H   0  0  0  0  0  0  0  0  0  0  0  0
   21.9079   32.5759   89.6827 H   0  0  0  0  0  0  0  0  0  0  0  0
   21.4122   32.5039   85.6763 H   0  0  0  0  0  0  0  0  0  0  0  0
   23.0099   31.6321   85.7049 H   0  0  0  0  0  0  0  0  0  0  0  0
   21.5079   31.0141   86.5028 H   0  0  0  0  0  0  0  0  0  0  0  0
  3  1  2  0
  4  1  1  0
  5  2  1  0
  6  1  1  0
  7  4  1  0
  7  2  1  0
  5  8  1  0
  9  5  1  0
 10  5  1  0
  2 11  1  0
  4 12  1  0
  4 13  1  0
  6 14  1  0
  7 15  1  0
  7 16  1  0
  8 17  1  0
  8 18  1  0
  8 19  1  0
  9 20  1  0
  9 21  1  0
  9 22  1  0
 10 23  1  0
 10 24  1  0
 10 25  1  0
M  CHG  1   5   1
M  END
