
     RDKit          3D

 25 24  0  0  0  0  0  0  0  0999 V2000
   22.1522   28.2058   89.8929 C   0  0  0  0  0  0  0  0  0  0  0  0
   22.2831   30.8907   87.1108 N   0  0  0  0  0  0  0  0  0  0  0  0
   22.7063   28.6942   90.9087 O   0  0  0  0  0  0  0  0  0  0  0  0
   22.5131   28.7118   88.5348 C   0  0  0  0  0  0  0  0  0  0  0  0
   22.7469   31.9851   87.8913 N   0  0  0  0  0  0  0  0  0  0  0  0
   21.3980   27.0440   90.0032 O   0  0  0  0  0  0  0  0  0  0  0  0
   21.6673   29.8121   87.9114 C   0  0  0  0  0  0  0  0  0  0  0  0
   23.1027   33.2932   87.4007 C   0  0  0  0  0  0  0  0  0  0  0  0
   24.1250   31.6020   87.9449 C   0  0  0  0  0  0  0  0  0  0  0  0
   21.6448   32.4179   88.7892 C   0  0  0  0  0  0  0  0  0  0  0  0
   21.5834   31.2395   86.4125 H   0  0  0  0  0  0  0  0  0  0  0  0
   22.4996   27.8404   87.8426 H   0  0  0  0  0  0  0  0  0  0  0  0
   23.5670   29.0620   88.5670 H   0  0  0  0  0  0  0  0  0  0  0  0
   21.2092   26.6313   90.9089 H   0  0  0  0  0  0  0  0  0  0  0  0
   20.9415   29.2694   87.2636 H   0  0  0  0  0  0  0  0  0  0  0  0
   21.0800   30.2444   88.7508 H   0  0  0  0  0  0  0  0  0  0  0  0
   23.9458   33.7463   87.9847 H   0  0  0  0  0  0  0  0  0  0  0  0
   23.4243   33.3376   86.3234 H   0  0  0  0  0  0  0  0  0  0  0  0
   22.3596   34.1120   87.6159 H   0  0  0  0  0  0  0  0  0  0  0  0
   24.2488   30.7188   88.6129 H   0  0  0  0  0  0  0  0  0  0  0  0
   24.7995   32.3150   88.4943 H   0  0  0  0  0  0  0  0  0  0  0  0
   24.5810   31.2654   86.9723 H   0  0  0  0  0  0  0  0  0  0  0  0
   21.9423   32.6083   89.8522 H   0  0  0  0  0  0  0  0  0  0  0  0
   21.1104   33.3143   88.3952 H   0  0  0  0  0  0  0  0  0  0  0  0
   20.9119   31.5999   88.9395 H   0  0  0  0  0  0  0  0  0  0  0  0
  3  1  2  0
  4  1  1  0
  5  2  1  0
  6  1  1  0
  7  4  1  0
  7  2  1  0
  5  8  1  0
  9  5  1  0
 10  5  1  0
  2 11  1  0
  4 12  1  0
  4 13  1  0
  6 14  1  0
  7 15  1  0
  7 16  1  0
  8 17  1  0
  8 18  1  0
  8 19  1  0
  9 20  1  0
  9 21  1  0
  9 22  1  0
 10 23  1  0
 10 24  1  0
 10 25  1  0
M  CHG  1   5   1
M  END
