
     RDKit          3D

 65 65  0  0  0  0  0  0  0  0999 V2000
   15.1250    6.9790   16.3909 C   0  0  0  0  0  0  0  0  0  0  0  0
   16.0423    5.9779   15.7163 C   0  0  1  0  0  0  0  0  0  0  0  0
   16.9226    6.6413   14.6213 C   0  0  2  0  0  0  0  0  0  0  0  0
   16.1154    7.3754   13.4982 C   0  0  1  0  0  0  0  0  0  0  0  0
   17.0643    8.3668   12.7380 C   0  0  2  0  0  0  0  0  0  0  0  0
   16.4515    9.4164   11.7464 C   0  0  2  0  0  0  0  0  0  0  0  0
   15.3531   10.3085   12.3744 C   0  0  0  0  0  0  0  0  0  0  0  0
   15.7288   11.0443   13.6951 C   0  0  2  0  0  0  0  0  0  0  0  0
   14.5225   11.8089   14.2552 C   0  0  0  0  0  0  0  0  0  0  0  0
   13.2084   11.0681   14.5566 C   0  0  1  0  0  0  0  0  0  0  0  0
   13.4720    9.8726   15.5412 C   0  0  2  0  0  0  0  0  0  0  0  0
   12.2941    8.8905   15.8549 C   0  0  2  0  0  0  0  0  0  0  0  0
   12.7523    7.7158   16.8070 C   0  0  1  0  0  0  0  0  0  0  0  0
   11.5682    6.8152   17.2388 C   0  0  0  0  0  0  0  0  0  0  0  0
   10.2412    7.2343   16.6030 C   0  0  0  0  0  0  0  0  0  0  0  0
   13.7413    6.8820   16.1832 O   0  0  0  0  0  0  0  0  0  0  0  0
   15.6018    7.8981   17.1116 O   0  0  0  0  0  0  0  0  0  0  0  0
   16.9203    5.2749   16.7639 C   0  0  0  0  0  0  0  0  0  0  0  0
   17.7557    5.6672   14.0296 O   0  0  0  0  0  0  0  0  0  0  0  0
   15.3969    6.3723   12.5744 C   0  0  0  0  0  0  0  0  0  0  0  0
   18.0660    7.6311   12.0860 O   0  0  0  0  0  0  0  0  0  0  0  0
   15.9413    8.8080   10.4234 C   0  0  0  0  0  0  0  0  0  0  0  0
   16.9489   11.9620   13.5181 C   0  0  0  0  0  0  0  0  0  0  0  0
   14.6230   13.0070   14.5059 O   0  0  0  0  0  0  0  0  0  0  0  0
   12.1266   12.0241   15.0870 C   0  0  0  0  0  0  0  0  0  0  0  0
   13.9997   10.3682   16.7470 O   0  0  0  0  0  0  0  0  0  0  0  0
   11.6619    8.3438   14.5567 C   0  0  0  0  0  0  0  0  0  0  0  0
   15.4114    5.1884   15.2589 H   0  0  0  0  0  0  0  0  0  0  0  0
   17.5462    7.4067   15.1460 H   0  0  0  0  0  0  0  0  0  0  0  0
   15.3348    7.9645   13.9684 H   0  0  0  0  0  0  0  0  0  0  0  0
   17.5694    8.9688   13.5267 H   0  0  0  0  0  0  0  0  0  0  0  0
   17.2858   10.0890   11.4493 H   0  0  0  0  0  0  0  0  0  0  0  0
   15.0390   11.0708   11.6271 H   0  0  0  0  0  0  0  0  0  0  0  0
   14.4762    9.6548   12.5542 H   0  0  0  0  0  0  0  0  0  0  0  0
   16.0273   10.3002   14.4569 H   0  0  0  0  0  0  0  0  0  0  0  0
   12.8313   10.6822   13.5909 H   0  0  0  0  0  0  0  0  0  0  0  0
   14.2209    9.2402   15.0721 H   0  0  0  0  0  0  0  0  0  0  0  0
   11.5100    9.4661   16.3929 H   0  0  0  0  0  0  0  0  0  0  0  0
   13.1655    8.1600   17.7398 H   0  0  0  0  0  0  0  0  0  0  0  0
   11.7829    5.7607   16.9603 H   0  0  0  0  0  0  0  0  0  0  0  0
   11.4181    6.8654   18.3357 H   0  0  0  0  0  0  0  0  0  0  0  0
   10.3211    7.2057   15.4956 H   0  0  0  0  0  0  0  0  0  0  0  0
    9.9619    8.2606   16.9228 H   0  0  0  0  0  0  0  0  0  0  0  0
    9.4388    6.5347   16.9192 H   0  0  0  0  0  0  0  0  0  0  0  0
   16.2837    4.8449   17.5670 H   0  0  0  0  0  0  0  0  0  0  0  0
   17.4885    4.4402   16.3017 H   0  0  0  0  0  0  0  0  0  0  0  0
   17.6371    5.9897   17.2224 H   0  0  0  0  0  0  0  0  0  0  0  0
   17.7451    5.8197   13.0485 H   0  0  0  0  0  0  0  0  0  0  0  0
   14.9442    5.5372   13.1416 H   0  0  0  0  0  0  0  0  0  0  0  0
   16.0960    5.9440   11.8260 H   0  0  0  0  0  0  0  0  0  0  0  0
   14.5550    6.8666   12.0541 H   0  0  0  0  0  0  0  0  0  0  0  0
   18.8308    8.2450   11.9277 H   0  0  0  0  0  0  0  0  0  0  0  0
   16.4559    9.2368    9.5427 H   0  0  0  0  0  0  0  0  0  0  0  0
   14.8457    8.9440   10.3115 H   0  0  0  0  0  0  0  0  0  0  0  0
   16.1461    7.7159   10.4166 H   0  0  0  0  0  0  0  0  0  0  0  0
   17.8557   11.3772   13.2627 H   0  0  0  0  0  0  0  0  0  0  0  0
   16.7613   12.7074   12.7159 H   0  0  0  0  0  0  0  0  0  0  0  0
   17.1683   12.4987   14.4660 H   0  0  0  0  0  0  0  0  0  0  0  0
   11.6889   12.6141   14.2553 H   0  0  0  0  0  0  0  0  0  0  0  0
   11.3152   11.4588   15.5930 H   0  0  0  0  0  0  0  0  0  0  0  0
   12.5704   12.7426   15.8090 H   0  0  0  0  0  0  0  0  0  0  0  0
   14.9705   10.5266   16.6153 H   0  0  0  0  0  0  0  0  0  0  0  0
   11.5481    7.2438   14.5880 H   0  0  0  0  0  0  0  0  0  0  0  0
   10.6314    8.7264   14.4252 H   0  0  0  0  0  0  0  0  0  0  0  0
   12.2713    8.6288   13.6725 H   0  0  0  0  0  0  0  0  0  0  0  0
  2  1  1  0
  3  2  1  0
  4  3  1  0
  5  4  1  0
  6  5  1  0
  7  6  1  0
  8  7  1  0
  9  8  1  0
 10  9  1  0
 11 10  1  0
 12 11  1  0
 13 12  1  0
 13 14  1  0
 15 14  1  0
 16 13  1  0
 16  1  1  0
 17  1  2  0
  2 18  1  0
  3 19  1  0
  4 20  1  0
  5 21  1  0
  6 22  1  0
  8 23  1  0
 24  9  2  0
 10 25  1  0
 11 26  1  0
 12 27  1  0
  2 28  1  6
  3 29  1  1
  4 30  1  1
  5 31  1  1
  6 32  1  6
  7 33  1  0
  7 34  1  0
  8 35  1  1
 10 36  1  6
 11 37  1  6
 12 38  1  1
 13 39  1  1
 14 40  1  0
 14 41  1  0
 15 42  1  0
 15 43  1  0
 15 44  1  0
 18 45  1  0
 18 46  1  0
 18 47  1  0
 19 48  1  0
 20 49  1  0
 20 50  1  0
 20 51  1  0
 21 52  1  0
 22 53  1  0
 22 54  1  0
 22 55  1  0
 23 56  1  0
 23 57  1  0
 23 58  1  0
 25 59  1  0
 25 60  1  0
 25 61  1  0
 26 62  1  0
 27 63  1  0
 27 64  1  0
 27 65  1  0
M  END
