
     RDKit          3D

 75 78  0  0  0  0  0  0  0  0999 V2000
   14.5269   -7.6404  -16.4624 N   0  0  0  0  0  0  0  0  0  0  0  0
   14.1729   -7.9353  -15.1198 C   0  0  0  0  0  0  0  0  0  0  0  0
   12.9506   -7.4840  -14.6127 C   0  0  0  0  0  0  0  0  0  0  0  0
   12.5954   -7.7707  -13.3006 C   0  0  0  0  0  0  0  0  0  0  0  0
   13.4645   -8.5108  -12.4934 C   0  0  0  0  0  0  0  0  0  0  0  0
   14.6895   -8.9600  -12.9954 C   0  0  0  0  0  0  0  0  0  0  0  0
   15.0444   -8.6734  -14.3102 C   0  0  0  0  0  0  0  0  0  0  0  0
   13.0092   -8.8927  -10.8608 S   0  0  0  0  0  0  0  0  0  0  0  0
   11.5152   -8.9763  -10.7852 O   0  0  0  0  0  0  0  0  0  0  0  0
   13.6069  -10.2099  -10.4655 O   0  0  0  0  0  0  0  0  0  0  0  0
   13.5787   -7.6917   -9.7649 N   0  0  0  0  0  0  0  0  0  0  0  0
   15.0411   -7.5716   -9.7990 C   0  0  0  0  0  0  0  0  0  0  0  0
   15.5212   -6.9436   -8.4792 C   0  0  0  0  0  0  0  0  0  0  0  0
   15.2526   -7.8898   -7.2969 C   0  0  0  0  0  0  0  0  0  0  0  0
   16.9977   -6.5807   -8.5581 C   0  0  0  0  0  0  0  0  0  0  0  0
   12.8676   -6.4093   -9.9023 C   0  0  0  0  0  0  0  0  0  0  0  0
   12.1998   -6.0848   -8.5606 C   0  0  1  0  0  0  0  0  0  0  0  0
   11.7969   -4.7412   -8.5448 O   0  0  0  0  0  0  0  0  0  0  0  0
   11.0317   -7.0321   -8.2194 C   0  0  1  0  0  0  0  0  0  0  0  0
   10.4294   -6.5594   -6.9877 N   0  0  0  0  0  0  0  0  0  0  0  0
   10.4898   -7.2491   -5.7554 C   0  0  0  0  0  0  0  0  0  0  0  0
   11.5839   -7.6263   -5.2593 O   0  0  0  0  0  0  0  0  0  0  0  0
    9.2968   -7.4895   -5.1127 O   0  0  0  0  0  0  0  0  0  0  0  0
    8.7548   -6.6457   -4.1128 C   0  0  1  0  0  0  0  0  0  0  0  0
    7.2783   -6.5662   -4.3778 C   0  0  0  0  0  0  0  0  0  0  0  0
    6.7197   -7.7611   -3.8903 O   0  0  0  0  0  0  0  0  0  0  0  0
    7.5097   -8.1521   -2.7817 C   0  0  1  0  0  0  0  0  0  0  0  0
    7.8340   -9.5272   -2.8811 O   0  0  0  0  0  0  0  0  0  0  0  0
    9.2282   -9.6374   -3.0707 C   0  0  0  0  0  0  0  0  0  0  0  0
    9.8776   -8.3604   -2.5775 C   0  0  0  0  0  0  0  0  0  0  0  0
    8.7846   -7.3336   -2.7622 C   0  0  1  0  0  0  0  0  0  0  0  0
    9.9228   -7.0941   -9.2857 C   0  0  0  0  0  0  0  0  0  0  0  0
    9.0917   -9.4258   -8.7757 C   0  0  0  0  0  0  0  0  0  0  0  0
    8.1004  -10.3136   -8.3637 C   0  0  0  0  0  0  0  0  0  0  0  0
    6.8394   -9.8357   -8.0065 C   0  0  0  0  0  0  0  0  0  0  0  0
    6.5709   -8.4655   -8.0513 C   0  0  0  0  0  0  0  0  0  0  0  0
    7.5644   -7.5711   -8.4636 C   0  0  0  0  0  0  0  0  0  0  0  0
    8.8312   -8.0466   -8.8463 C   0  0  0  0  0  0  0  0  0  0  0  0
   13.8868   -7.0906  -17.0782 H   0  0  0  0  0  0  0  0  0  0  0  0
   15.4352   -7.9681  -16.8606 H   0  0  0  0  0  0  0  0  0  0  0  0
   12.2741   -6.9125  -15.2360 H   0  0  0  0  0  0  0  0  0  0  0  0
   11.6439   -7.4217  -12.9205 H   0  0  0  0  0  0  0  0  0  0  0  0
   15.3673   -9.5311  -12.3739 H   0  0  0  0  0  0  0  0  0  0  0  0
   15.9928   -9.0235  -14.6980 H   0  0  0  0  0  0  0  0  0  0  0  0
   15.5199   -8.5701   -9.9080 H   0  0  0  0  0  0  0  0  0  0  0  0
   15.3577   -6.9548  -10.6705 H   0  0  0  0  0  0  0  0  0  0  0  0
   15.0073   -5.9795   -8.3013 H   0  0  0  0  0  0  0  0  0  0  0  0
   14.1783   -8.1608   -7.2338 H   0  0  0  0  0  0  0  0  0  0  0  0
   15.8430   -8.8249   -7.4049 H   0  0  0  0  0  0  0  0  0  0  0  0
   15.5380   -7.3968   -6.3433 H   0  0  0  0  0  0  0  0  0  0  0  0
   17.1957   -5.6294   -8.0187 H   0  0  0  0  0  0  0  0  0  0  0  0
   17.3092   -6.4619   -9.6182 H   0  0  0  0  0  0  0  0  0  0  0  0
   17.6168   -7.3843   -8.1045 H   0  0  0  0  0  0  0  0  0  0  0  0
   12.1096   -6.4240  -10.7115 H   0  0  0  0  0  0  0  0  0  0  0  0
   13.5629   -5.5813  -10.1681 H   0  0  0  0  0  0  0  0  0  0  0  0
   12.9516   -6.2286   -7.7571 H   0  0  0  0  0  0  0  0  0  0  0  0
   12.1491   -4.3098   -9.3669 H   0  0  0  0  0  0  0  0  0  0  0  0
   11.4433   -8.0516   -8.0649 H   0  0  0  0  0  0  0  0  0  0  0  0
    9.9233   -5.6442   -6.9991 H   0  0  0  0  0  0  0  0  0  0  0  0
    9.2191   -5.6348   -4.0927 H   0  0  0  0  0  0  0  0  0  0  0  0
    7.0666   -6.4614   -5.4639 H   0  0  0  0  0  0  0  0  0  0  0  0
    6.8302   -5.6987   -3.8428 H   0  0  0  0  0  0  0  0  0  0  0  0
    6.9343   -7.9863   -1.8448 H   0  0  0  0  0  0  0  0  0  0  0  0
    9.4452   -9.8089   -4.1466 H   0  0  0  0  0  0  0  0  0  0  0  0
    9.6145  -10.5077   -2.4990 H   0  0  0  0  0  0  0  0  0  0  0  0
   10.1111   -8.4597   -1.4944 H   0  0  0  0  0  0  0  0  0  0  0  0
   10.8135   -8.1182   -3.1249 H   0  0  0  0  0  0  0  0  0  0  0  0
    8.7793   -6.5842   -1.9384 H   0  0  0  0  0  0  0  0  0  0  0  0
   10.3308   -7.4503  -10.2533 H   0  0  0  0  0  0  0  0  0  0  0  0
    9.5041   -6.0792   -9.4633 H   0  0  0  0  0  0  0  0  0  0  0  0
   10.0554   -9.8275   -9.0248 H   0  0  0  0  0  0  0  0  0  0  0  0
    8.3098  -11.3745   -8.3152 H   0  0  0  0  0  0  0  0  0  0  0  0
    6.0712  -10.5263   -7.6836 H   0  0  0  0  0  0  0  0  0  0  0  0
    5.5966   -8.0951   -7.7601 H   0  0  0  0  0  0  0  0  0  0  0  0
    7.3465   -6.5107   -8.4852 H   0  0  0  0  0  0  0  0  0  0  0  0
  2  1  1  0
  3  2  2  0
  4  3  1  0
  5  4  2  0
  6  5  1  0
  7  6  2  0
  7  2  1  0
  8  5  1  0
  9  8  2  0
 10  8  2  0
  8 11  1  0
 12 11  1  0
 13 12  1  0
 13 14  1  0
 15 13  1  0
 16 11  1  0
 17 16  1  0
 17 18  1  0
 19 17  1  0
 20 19  1  0
 21 20  1  0
 22 21  2  0
 23 21  1  0
 24 23  1  0
 25 24  1  0
 26 25  1  0
 27 26  1  0
 28 27  1  0
 29 28  1  0
 30 29  1  0
 31 30  1  0
 31 27  1  0
 31 24  1  0
 19 32  1  0
 34 33  2  0
 35 34  1  0
 36 35  2  0
 37 36  1  0
 38 37  2  0
 38 33  1  0
 38 32  1  0
  1 39  1  0
  1 40  1  0
  3 41  1  0
  4 42  1  0
  6 43  1  0
  7 44  1  0
 12 45  1  0
 12 46  1  0
 13 47  1  0
 14 48  1  0
 14 49  1  0
 14 50  1  0
 15 51  1  0
 15 52  1  0
 15 53  1  0
 16 54  1  0
 16 55  1  0
 17 56  1  1
 18 57  1  0
 19 58  1  1
 20 59  1  0
 24 60  1  1
 25 61  1  0
 25 62  1  0
 27 63  1  1
 29 64  1  0
 29 65  1  0
 30 66  1  0
 30 67  1  0
 31 68  1  1
 32 69  1  0
 32 70  1  0
 33 71  1  0
 34 72  1  0
 35 73  1  0
 36 74  1  0
 37 75  1  0
M  END
