
     RDKit          3D

 39 38  0  0  0  0  0  0  0  0999 V2000
   17.9716   73.3604   10.3408 C   0  0  1  0  0  0  0  0  0  0  0  0
   13.4527   73.4569   15.0018 C   0  0  1  0  0  0  0  0  0  0  0  0
   12.6611   71.6399   12.8832 C   0  0  0  0  0  0  0  0  0  0  0  0
   16.9894   72.8047   11.4038 C   0  0  0  0  0  0  0  0  0  0  0  0
   13.5382   74.1007   16.3758 C   0  0  0  0  0  0  0  0  0  0  0  0
   16.1821   73.8375   12.2234 C   0  0  0  0  0  0  0  0  0  0  0  0
   15.0161   73.5007   17.2092 S   0  0  0  0  0  0  0  0  0  0  0  0
   15.1849   73.1802   13.1583 C   0  0  0  0  0  0  0  0  0  0  0  0
   14.9578   71.9396   13.0915 O   0  0  0  0  0  0  0  0  0  0  0  0
   19.0810   74.1886   10.9492 C   0  0  0  0  0  0  0  0  0  0  0  0
   18.5500   72.2237    9.6059 N   0  0  0  0  0  0  0  0  0  0  0  0
   14.8215   72.0042   17.4180 O   0  0  0  0  0  0  0  0  0  0  0  0
   12.1386   73.6595   14.3193 C   0  0  0  0  0  0  0  0  0  0  0  0
   14.4976   73.9844   14.1250 N   0  0  0  0  0  0  0  0  0  0  0  0
   11.4501   74.7084   14.4699 O   0  0  0  0  0  0  0  0  0  0  0  0
   16.1622   73.6301   15.9796 O   0  0  0  0  0  0  0  0  0  0  0  0
   11.9164   70.6870   12.0018 C   0  0  0  0  0  0  0  0  0  0  0  0
   11.7516   72.6470   13.4033 N   0  0  0  0  0  0  0  0  0  0  0  0
   18.8271   75.2826   11.5174 O   0  0  0  0  0  0  0  0  0  0  0  0
   20.3955   73.7642   10.8531 O   0  0  0  0  0  0  0  0  0  0  0  0
   12.5507   69.9573   11.2011 O   0  0  0  0  0  0  0  0  0  0  0  0
   10.5355   70.5766   12.0860 O   0  0  0  0  0  0  0  0  0  0  0  0
   17.4028   74.0021    9.6306 H   0  0  0  0  0  0  0  0  0  0  0  0
   13.6040   72.3649   15.1570 H   0  0  0  0  0  0  0  0  0  0  0  0
   13.1078   71.0728   13.7274 H   0  0  0  0  0  0  0  0  0  0  0  0
   13.4709   72.1344   12.3049 H   0  0  0  0  0  0  0  0  0  0  0  0
   16.2597   72.1493   10.8783 H   0  0  0  0  0  0  0  0  0  0  0  0
   17.5607   72.1612   12.1095 H   0  0  0  0  0  0  0  0  0  0  0  0
   13.5631   75.2093   16.2994 H   0  0  0  0  0  0  0  0  0  0  0  0
   12.6479   73.8094   16.9743 H   0  0  0  0  0  0  0  0  0  0  0  0
   16.8718   74.4495   12.8395 H   0  0  0  0  0  0  0  0  0  0  0  0
   15.6334   74.5099   11.5301 H   0  0  0  0  0  0  0  0  0  0  0  0
   19.4506   72.5361    9.1739 H   0  0  0  0  0  0  0  0  0  0  0  0
   17.9235   71.9933    8.8002 H   0  0  0  0  0  0  0  0  0  0  0  0
   14.6567   75.0179   14.1046 H   0  0  0  0  0  0  0  0  0  0  0  0
   15.8499   73.0251   15.2594 H   0  0  0  0  0  0  0  0  0  0  0  0
   10.7727   72.6965   13.0417 H   0  0  0  0  0  0  0  0  0  0  0  0
   21.0084   74.1263   10.1323 H   0  0  0  0  0  0  0  0  0  0  0  0
   10.0288   69.9241   11.4997 H   0  0  0  0  0  0  0  0  0  0  0  0
  4  1  1  0
  2  5  1  0
  6  4  1  0
  7  5  1  0
  8  6  1  0
  9  8  2  0
 10  1  1  0
  1 11  1  0
 12  7  2  0
 13  2  1  0
 14  8  1  0
 14  2  1  0
 15 13  2  0
  7 16  1  6
 17  3  1  0
 18 13  1  0
 18  3  1  0
 19 10  2  0
 20 10  1  0
 21 17  2  0
 22 17  1  0
  1 23  1  6
  2 24  1  1
  3 25  1  0
  3 26  1  0
  4 27  1  0
  4 28  1  0
  5 29  1  0
  5 30  1  0
  6 31  1  0
  6 32  1  0
 11 33  1  0
 11 34  1  0
 14 35  1  0
 16 36  1  0
 18 37  1  0
 20 38  1  0
 22 39  1  0
M  END
