
     RDKit          3D

 49 51  0  0  0  0  0  0  0  0999 V2000
   70.0462  -22.9733   14.9419 P   0  0  2  0  0  0  0  0  0  0  0  0
   68.4600  -20.7943   14.2151 P   0  0  1  0  0  0  0  0  0  0  0  0
   65.7073  -20.9319   13.3154 P   0  0  0  0  0  0  0  0  0  0  0  0
   71.1588  -24.0290   12.9008 C   0  0  0  0  0  0  0  0  0  0  0  0
   71.3638  -23.7730   14.2747 O   0  0  0  0  0  0  0  0  0  0  0  0
   72.2019  -25.0709   12.4742 C   0  0  1  0  0  0  0  0  0  0  0  0
   73.4958  -24.4930   12.5411 O   0  0  0  0  0  0  0  0  0  0  0  0
   72.1589  -26.2960   13.4038 C   0  0  1  0  0  0  0  0  0  0  0  0
   72.4587  -27.4533   12.6685 O   0  0  0  0  0  0  0  0  0  0  0  0
   73.2763  -25.9935   14.3777 C   0  0  1  0  0  0  0  0  0  0  0  0
   73.8388  -27.1505   14.9480 O   0  0  0  0  0  0  0  0  0  0  0  0
   74.2486  -25.2095   13.4936 C   0  0  2  0  0  0  0  0  0  0  0  0
   79.0060  -23.3690   14.2883 N   0  0  0  0  0  0  0  0  0  0  0  0
   70.4189  -22.5242   16.3321 O   0  0  0  0  0  0  0  0  0  0  0  0
   68.7866  -19.3684   13.8451 O   0  0  0  0  0  0  0  0  0  0  0  0
   64.8772  -21.5801   12.2366 O   0  0  0  0  0  0  0  0  0  0  0  0
   78.6044  -24.3929   13.4663 C   0  0  0  0  0  0  0  0  0  0  0  0
   79.5651  -25.0725   12.6704 N   0  0  0  0  0  0  0  0  0  0  0  0
   68.7195  -24.0020   14.9679 O   0  0  0  0  0  0  0  0  0  0  0  0
   67.9041  -20.8874   15.7977 O   0  0  0  0  0  0  0  0  0  0  0  0
   65.1199  -21.3976   14.8191 O   0  0  0  0  0  0  0  0  0  0  0  0
   77.2864  -24.7606   13.4048 N   0  0  0  0  0  0  0  0  0  0  0  0
   67.3423  -21.4701   13.0699 N   0  0  0  0  0  0  0  0  0  0  0  0
   69.8726  -21.6475   13.9338 O   0  0  0  0  0  0  0  0  0  0  0  0
   65.5982  -19.2633   13.1541 O   0  0  0  0  0  0  0  0  0  0  0  0
   76.3982  -24.0880   14.1758 C   0  0  0  0  0  0  0  0  0  0  0  0
   76.7685  -23.0780   14.9948 C   0  0  0  0  0  0  0  0  0  0  0  0
   78.1074  -22.7018   15.0707 C   0  0  0  0  0  0  0  0  0  0  0  0
   78.4905  -21.7730   15.8286 O   0  0  0  0  0  0  0  0  0  0  0  0
   75.6910  -22.5662   15.6205 N   0  0  0  0  0  0  0  0  0  0  0  0
   74.6669  -23.3261   15.1460 C   0  0  0  0  0  0  0  0  0  0  0  0
   75.0731  -24.2751   14.2618 N   0  0  0  0  0  0  0  0  0  0  0  0
   70.1443  -24.4459   12.7015 H   0  0  0  0  0  0  0  0  0  0  0  0
   71.3028  -23.0998   12.3070 H   0  0  0  0  0  0  0  0  0  0  0  0
   71.9920  -25.3664   11.4224 H   0  0  0  0  0  0  0  0  0  0  0  0
   71.1876  -26.4186   13.9398 H   0  0  0  0  0  0  0  0  0  0  0  0
   72.2328  -27.2527   11.7228 H   0  0  0  0  0  0  0  0  0  0  0  0
   72.8966  -25.3637   15.2078 H   0  0  0  0  0  0  0  0  0  0  0  0
   73.2439  -27.4762   15.6722 H   0  0  0  0  0  0  0  0  0  0  0  0
   74.9073  -25.9133   12.9364 H   0  0  0  0  0  0  0  0  0  0  0  0
   80.0154  -23.0994   14.3243 H   0  0  0  0  0  0  0  0  0  0  0  0
   79.2703  -25.8515   12.0407 H   0  0  0  0  0  0  0  0  0  0  0  0
   80.5737  -24.8047   12.7032 H   0  0  0  0  0  0  0  0  0  0  0  0
   69.0363  -24.8096   15.4456 H   0  0  0  0  0  0  0  0  0  0  0  0
   67.1734  -21.5543   15.7817 H   0  0  0  0  0  0  0  0  0  0  0  0
   64.2459  -21.8230   14.6288 H   0  0  0  0  0  0  0  0  0  0  0  0
   67.6383  -21.1483   12.1210 H   0  0  0  0  0  0  0  0  0  0  0  0
   66.0021  -19.0657   12.2715 H   0  0  0  0  0  0  0  0  0  0  0  0
   73.6375  -23.1683   15.4337 H   0  0  0  0  0  0  0  0  0  0  0  0
  5  4  1  0
  1  5  1  6
  6  4  1  0
  7  6  1  0
  8  6  1  0
  8  9  1  0
 10  8  1  0
 10 11  1  0
 12 10  1  0
 12  7  1  0
 14  1  2  0
 15  2  2  0
 16  3  2  0
 17 13  1  0
 18 17  1  0
 19  1  1  0
  2 20  1  1
 21  3  1  0
 22 17  2  0
 23  3  1  0
 23  2  1  0
 24  1  1  0
 24  2  1  0
 25  3  1  0
 26 22  1  0
 27 26  2  0
 28 27  1  0
 28 13  1  0
 29 28  2  0
 30 27  1  0
 31 30  2  0
 32 31  1  0
 32 26  1  0
 12 32  1  0
  4 33  1  0
  4 34  1  0
  6 35  1  6
  8 36  1  1
  9 37  1  0
 10 38  1  1
 11 39  1  0
 12 40  1  6
 13 41  1  0
 18 42  1  0
 18 43  1  0
 19 44  1  0
 20 45  1  0
 21 46  1  0
 23 47  1  0
 25 48  1  0
 31 49  1  0
M  END
