
     RDKit          3D

 21 20  0  0  0  0  0  0  0  0999 V2000
    1.2624   22.5764   25.8346 C   0  0  0  0  0  0  0  0  0  0  0  0
    0.0955   22.7796   25.4195 O   0  0  0  0  0  0  0  0  0  0  0  0
    1.6167   21.1836   26.3006 C   0  0  0  0  0  0  0  0  0  0  0  0
    2.1301   23.6493   25.9542 O   0  0  0  0  0  0  0  0  0  0  0  0
    2.6132   20.3395   25.4671 C   0  0  0  0  0  0  0  0  0  0  0  0
    4.5388   17.6359   25.3612 O   0  0  0  0  0  0  0  0  0  0  0  0
    3.8128   19.8463   26.3302 C   0  0  0  0  0  0  0  0  0  0  0  0
    5.9050   19.4706   25.2822 O   0  0  0  0  0  0  0  0  0  0  0  0
    4.8051   18.9726   25.6246 C   0  0  0  0  0  0  0  0  0  0  0  0
    2.8190   20.4649   23.9823 C   0  0  0  0  0  0  0  0  0  0  0  0
    1.9172   19.3663   25.1950 O   0  0  0  0  0  0  0  0  0  0  0  0
    0.6616   20.6250   26.4287 H   0  0  0  0  0  0  0  0  0  0  0  0
    2.0520   21.2798   27.3181 H   0  0  0  0  0  0  0  0  0  0  0  0
    2.1225   24.4042   25.2786 H   0  0  0  0  0  0  0  0  0  0  0  0
    5.2572   17.0262   24.9892 H   0  0  0  0  0  0  0  0  0  0  0  0
    3.4649   19.3111   27.2418 H   0  0  0  0  0  0  0  0  0  0  0  0
    4.3461   20.7493   26.7006 H   0  0  0  0  0  0  0  0  0  0  0  0
    1.9170   20.7395   23.3841 H   0  0  0  0  0  0  0  0  0  0  0  0
    3.5033   21.3278   23.8400 H   0  0  0  0  0  0  0  0  0  0  0  0
    3.3474   19.6092   23.4839 H   0  0  0  0  0  0  0  0  0  0  0  0
    1.9800   18.6192   25.8588 H   0  0  0  0  0  0  0  0  0  0  0  0
  2  1  2  0
  3  1  1  0
  4  1  1  0
  5  3  1  0
  7  5  1  0
  9  7  1  0
  9  8  2  0
  9  6  1  0
  5 10  1  0
 11  5  1  0
  3 12  1  0
  3 13  1  0
  4 14  1  0
  6 15  1  0
  7 16  1  0
  7 17  1  0
 10 18  1  0
 10 19  1  0
 10 20  1  0
 11 21  1  0
M  END
