
     RDKit          3D

 21 20  0  0  0  0  0  0  0  0999 V2000
   14.5589  -17.0916   27.6182 C   0  0  0  0  0  0  0  0  0  0  0  0
   14.5764  -17.7118   28.7108 O   0  0  0  0  0  0  0  0  0  0  0  0
   14.3173  -15.6079   27.6463 C   0  0  0  0  0  0  0  0  0  0  0  0
   14.6683  -17.8050   26.4396 O   0  0  0  0  0  0  0  0  0  0  0  0
   12.8546  -15.0645   27.7139 C   0  0  0  0  0  0  0  0  0  0  0  0
   10.4722  -12.9710   27.0282 O   0  0  0  0  0  0  0  0  0  0  0  0
   12.4800  -14.3853   26.3724 C   0  0  0  0  0  0  0  0  0  0  0  0
   12.3283  -12.0446   26.0644 O   0  0  0  0  0  0  0  0  0  0  0  0
   11.7490  -13.0722   26.4841 C   0  0  0  0  0  0  0  0  0  0  0  0
   12.1434  -14.6852   28.9907 C   0  0  0  0  0  0  0  0  0  0  0  0
   12.1149  -16.0394   27.6334 O   0  0  0  0  0  0  0  0  0  0  0  0
   14.8407  -15.1692   26.7664 H   0  0  0  0  0  0  0  0  0  0  0  0
   14.8448  -15.2184   28.5434 H   0  0  0  0  0  0  0  0  0  0  0  0
   14.7990  -18.8096   26.4478 H   0  0  0  0  0  0  0  0  0  0  0  0
   10.1392  -12.0954   27.4138 H   0  0  0  0  0  0  0  0  0  0  0  0
   11.8622  -15.0640   25.7400 H   0  0  0  0  0  0  0  0  0  0  0  0
   13.4236  -14.2185   25.8073 H   0  0  0  0  0  0  0  0  0  0  0  0
   11.0932  -14.3380   28.8344 H   0  0  0  0  0  0  0  0  0  0  0  0
   12.1316  -15.4348   29.8180 H   0  0  0  0  0  0  0  0  0  0  0  0
   12.6795  -13.8051   29.4031 H   0  0  0  0  0  0  0  0  0  0  0  0
   11.9584  -16.5792   28.4633 H   0  0  0  0  0  0  0  0  0  0  0  0
  2  1  2  0
  3  1  1  0
  4  1  1  0
  5  3  1  0
  7  5  1  0
  9  8  2  0
  9  6  1  0
  9  7  1  0
  5 10  1  0
 11  5  1  0
  3 12  1  0
  3 13  1  0
  4 14  1  0
  6 15  1  0
  7 16  1  0
  7 17  1  0
 10 18  1  0
 10 19  1  0
 10 20  1  0
 11 21  1  0
M  END
