
     RDKit          3D

 35 34  0  0  0  0  0  0  0  0999 V2000
  -25.9691   30.5825  -14.6625 P   0  0  2  0  0  0  0  0  0  0  0  0
  -24.8875   33.1766  -14.5366 C   0  0  0  0  0  0  0  0  0  0  0  0
  -25.4379   32.2328  -16.7323 N   0  0  0  0  0  0  0  0  0  0  0  0
  -24.9264   31.8973  -15.4034 C   0  0  2  0  0  0  0  0  0  0  0  0
  -26.2534   30.8848  -12.8831 C   0  0  0  0  0  0  0  0  0  0  0  0
  -27.7344   30.9512  -12.4389 C   0  0  1  0  0  0  0  0  0  0  0  0
  -28.6241   29.8379  -12.9502 C   0  0  0  0  0  0  0  0  0  0  0  0
  -27.7939   31.0071  -10.9039 C   0  0  0  0  0  0  0  0  0  0  0  0
  -23.5056   33.8350  -14.2839 C   0  0  0  0  0  0  0  0  0  0  0  0
  -25.2102   29.2820  -14.7803 O   0  0  0  0  0  0  0  0  0  0  0  0
  -27.4224   30.4426  -15.5047 O   0  0  0  0  0  0  0  0  0  0  0  0
  -29.7275   30.1300  -13.4809 O   0  0  0  0  0  0  0  0  0  0  0  0
  -28.2592   28.5062  -12.8375 O   0  0  0  0  0  0  0  0  0  0  0  0
  -23.5387   35.3557  -14.2336 C   0  0  0  0  0  0  0  0  0  0  0  0
  -22.2442   33.2409  -14.8965 C   0  0  0  0  0  0  0  0  0  0  0  0
  -25.3488   32.9582  -13.5464 H   0  0  0  0  0  0  0  0  0  0  0  0
  -25.5708   33.9312  -14.9862 H   0  0  0  0  0  0  0  0  0  0  0  0
  -26.4579   32.4579  -16.6761 H   0  0  0  0  0  0  0  0  0  0  0  0
  -25.3308   31.4020  -17.3585 H   0  0  0  0  0  0  0  0  0  0  0  0
  -23.9206   31.4495  -15.5110 H   0  0  0  0  0  0  0  0  0  0  0  0
  -25.7581   31.8434  -12.6170 H   0  0  0  0  0  0  0  0  0  0  0  0
  -25.7307   30.0818  -12.3197 H   0  0  0  0  0  0  0  0  0  0  0  0
  -28.1477   31.9083  -12.8279 H   0  0  0  0  0  0  0  0  0  0  0  0
  -26.7908   31.2329  -10.4817 H   0  0  0  0  0  0  0  0  0  0  0  0
  -28.5094   31.7901  -10.5727 H   0  0  0  0  0  0  0  0  0  0  0  0
  -28.1406   30.0327  -10.4977 H   0  0  0  0  0  0  0  0  0  0  0  0
  -23.3259   33.5953  -13.2090 H   0  0  0  0  0  0  0  0  0  0  0  0
  -27.3095   29.6512  -16.0888 H   0  0  0  0  0  0  0  0  0  0  0  0
  -28.0381   28.1009  -11.9359 H   0  0  0  0  0  0  0  0  0  0  0  0
  -23.0337   35.7262  -13.3153 H   0  0  0  0  0  0  0  0  0  0  0  0
  -24.5929   35.7045  -14.2279 H   0  0  0  0  0  0  0  0  0  0  0  0
  -23.0224   35.7934  -15.1153 H   0  0  0  0  0  0  0  0  0  0  0  0
  -21.4807   34.0303  -15.0661 H   0  0  0  0  0  0  0  0  0  0  0  0
  -22.4861   32.7737  -15.8741 H   0  0  0  0  0  0  0  0  0  0  0  0
  -21.7883   32.4835  -14.2235 H   0  0  0  0  0  0  0  0  0  0  0  0
  4  3  1  0
  4  2  1  0
  4  1  1  0
  5  1  1  0
  6  5  1  0
  7  6  1  0
  6  8  1  0
  9  2  1  0
 10  1  2  0
  1 11  1  6
 12  7  2  0
 13  7  1  0
  9 14  1  0
 15  9  1  0
  2 16  1  0
  2 17  1  0
  3 18  1  0
  3 19  1  0
  4 20  1  6
  5 21  1  0
  5 22  1  0
  6 23  1  6
  8 24  1  0
  8 25  1  0
  8 26  1  0
  9 27  1  0
 11 28  1  0
 13 29  1  0
 14 30  1  0
 14 31  1  0
 14 32  1  0
 15 33  1  0
 15 34  1  0
 15 35  1  0
M  END
