
     RDKit          3D

 17 17  0  0  0  0  0  0  0  0999 V2000
   28.0498    6.5308    4.8506 C   0  0  0  0  0  0  0  0  0  0  0  0
   28.3057    6.0104    3.5689 C   0  0  0  0  0  0  0  0  0  0  0  0
   27.1796    5.8373    5.7146 C   0  0  0  0  0  0  0  0  0  0  0  0
   28.7118    7.8134    5.2817 C   0  0  0  0  0  0  0  0  0  0  0  0
   27.6919    4.8147    3.1653 C   0  0  0  0  0  0  0  0  0  0  0  0
   29.1920    6.6870    2.6724 N   0  0  0  0  0  0  0  0  0  0  0  0
   26.5730    4.6488    5.3037 C   0  0  0  0  0  0  0  0  0  0  0  0
   26.8317    4.1383    4.0324 C   0  0  0  0  0  0  0  0  0  0  0  0
   26.9108    6.3077    6.9537 F   0  0  0  0  0  0  0  0  0  0  0  0
   29.7635    7.6493    5.5955 H   0  0  0  0  0  0  0  0  0  0  0  0
   28.7229    8.5366    4.4391 H   0  0  0  0  0  0  0  0  0  0  0  0
   28.1692    8.2485    6.1474 H   0  0  0  0  0  0  0  0  0  0  0  0
   27.8831    4.4064    2.1808 H   0  0  0  0  0  0  0  0  0  0  0  0
   28.8935    7.4707    2.0530 H   0  0  0  0  0  0  0  0  0  0  0  0
   30.1952    6.4017    2.6160 H   0  0  0  0  0  0  0  0  0  0  0  0
   25.9040    4.1210    5.9714 H   0  0  0  0  0  0  0  0  0  0  0  0
   26.3624    3.2157    3.7158 H   0  0  0  0  0  0  0  0  0  0  0  0
  2  1  2  0
  3  1  1  0
  4  1  1  0
  5  2  1  0
  6  2  1  0
  7  3  2  0
  8  7  1  0
  8  5  2  0
  9  3  1  0
  4 10  1  0
  4 11  1  0
  4 12  1  0
  5 13  1  0
  6 14  1  0
  6 15  1  0
  7 16  1  0
  8 17  1  0
M  END
