
     RDKit          3D

 41 44  0  0  0  0  0  0  0  0999 V2000
   25.9299   46.9138   -1.2660 C   0  0  0  0  0  0  0  0  0  0  0  0
   24.4902   47.2248    3.4630 C   0  0  0  0  0  0  0  0  0  0  0  0
   24.8182   46.5257    2.3151 C   0  0  0  0  0  0  0  0  0  0  0  0
   24.9395   48.5196    3.6279 C   0  0  0  0  0  0  0  0  0  0  0  0
   27.2082   53.6327    0.5436 C   0  0  0  0  0  0  0  0  0  0  0  0
   27.1144   53.7122    1.9288 C   0  0  0  0  0  0  0  0  0  0  0  0
   26.2225   51.1570    4.0935 C   0  0  0  0  0  0  0  0  0  0  0  0
   26.0777   48.4194    1.4889 C   0  0  0  0  0  0  0  0  0  0  0  0
   24.4847   52.8344   -4.0538 C   0  0  0  0  0  0  0  0  0  0  0  0
   24.4436   51.6475   -3.1054 C   0  0  0  0  0  0  0  0  0  0  0  0
   26.2272   53.4069   -2.2886 C   0  0  0  0  0  0  0  0  0  0  0  0
   25.9192   46.3268    0.1103 C   0  0  0  0  0  0  0  0  0  0  0  0
   25.6065   47.1148    1.3157 C   0  0  0  0  0  0  0  0  0  0  0  0
   25.7353   49.1349    2.6473 C   0  0  0  0  0  0  0  0  0  0  0  0
   26.9074   52.4240   -0.0982 C   0  0  0  0  0  0  0  0  0  0  0  0
   26.1591   50.5167    2.8669 C   0  0  0  0  0  0  0  0  0  0  0  0
   26.7445   52.5614    2.6032 C   0  0  0  0  0  0  0  0  0  0  0  0
   24.7719   53.0426   -2.5746 C   0  0  0  0  0  0  0  0  0  0  0  0
   26.5893   52.4422    3.9269 N   0  0  0  0  0  0  0  0  0  0  0  0
   26.5527   51.3296    0.6264 N   0  0  0  0  0  0  0  0  0  0  0  0
   26.8943   52.3749   -1.5104 N   0  0  0  0  0  0  0  0  0  0  0  0
   26.4935   51.4270    1.9439 N   0  0  0  0  0  0  0  0  0  0  0  0
   26.2149   45.1129    0.2491 O   0  0  0  0  0  0  0  0  0  0  0  0
   25.3815   47.8788   -1.2856 H   0  0  0  0  0  0  0  0  0  0  0  0
   25.4417   46.2219   -1.9846 H   0  0  0  0  0  0  0  0  0  0  0  0
   26.9862   47.0558   -1.5694 H   0  0  0  0  0  0  0  0  0  0  0  0
   23.8744   46.7611    4.2234 H   0  0  0  0  0  0  0  0  0  0  0  0
   24.4392   45.5169    2.2068 H   0  0  0  0  0  0  0  0  0  0  0  0
   24.6319   49.0207    4.5311 H   0  0  0  0  0  0  0  0  0  0  0  0
   27.4813   54.5114   -0.0271 H   0  0  0  0  0  0  0  0  0  0  0  0
   27.3204   54.6355    2.4549 H   0  0  0  0  0  0  0  0  0  0  0  0
   26.0279   50.7432    5.0708 H   0  0  0  0  0  0  0  0  0  0  0  0
   26.7280   48.8293    0.7398 H   0  0  0  0  0  0  0  0  0  0  0  0
   25.3556   52.8258   -4.7437 H   0  0  0  0  0  0  0  0  0  0  0  0
   23.4783   53.1648   -4.3889 H   0  0  0  0  0  0  0  0  0  0  0  0
   23.4108   51.3062   -2.8831 H   0  0  0  0  0  0  0  0  0  0  0  0
   25.2485   50.9151   -3.3121 H   0  0  0  0  0  0  0  0  0  0  0  0
   26.2744   54.3873   -1.7675 H   0  0  0  0  0  0  0  0  0  0  0  0
   26.7545   53.5308   -3.2591 H   0  0  0  0  0  0  0  0  0  0  0  0
   23.9733   53.6651   -2.1282 H   0  0  0  0  0  0  0  0  0  0  0  0
   27.5330   51.7141   -2.0091 H   0  0  0  0  0  0  0  0  0  0  0  0
  3  2  2  0
  4  2  1  0
  6  5  2  0
 10  9  1  0
 12  1  1  0
 13 12  1  0
 13  3  1  0
 13  8  2  0
 14  8  1  0
 14  4  2  0
 15  5  1  0
 16 14  1  0
 16  7  2  0
 17  6  1  0
 18 11  1  0
 18 10  1  0
 18  9  1  0
 19 17  2  0
 19  7  1  0
 20 15  2  0
 21 15  1  0
 21 11  1  0
 22 20  1  0
 22 17  1  0
 22 16  1  0
 23 12  2  0
  1 24  1  0
  1 25  1  0
  1 26  1  0
  2 27  1  0
  3 28  1  0
  4 29  1  0
  5 30  1  0
  6 31  1  0
  7 32  1  0
  8 33  1  0
  9 34  1  0
  9 35  1  0
 10 36  1  0
 10 37  1  0
 11 38  1  0
 11 39  1  0
 18 40  1  0
 21 41  1  0
M  END
