
     RDKit          3D

 24 24  0  0  0  0  0  0  0  0999 V2000
   31.7271   66.3912    7.9025 C   0  0  2  0  0  0  0  0  0  0  0  0
   31.4234   65.7691    9.2965 C   0  0  2  0  0  0  0  0  0  0  0  0
   30.5332   66.2681    6.9291 C   0  0  2  0  0  0  0  0  0  0  0  0
   32.8806   65.8521    7.3010 O   0  0  0  0  0  0  0  0  0  0  0  0
   32.5553   65.1143    9.8146 O   0  0  0  0  0  0  0  0  0  0  0  0
   30.3060   64.8168    9.2226 N   0  0  0  0  0  0  0  0  0  0  0  0
   30.6990   67.1813    5.8778 O   0  0  0  0  0  0  0  0  0  0  0  0
   29.1868   66.4807    7.6553 C   0  0  1  0  0  0  0  0  0  0  0  0
   27.9884   66.4066    6.6835 C   0  0  0  0  0  0  0  0  0  0  0  0
   29.0358   65.4421    8.7983 C   0  0  0  0  0  0  0  0  0  0  0  0
   27.8757   67.6057    5.9616 O   0  0  0  0  0  0  0  0  0  0  0  0
   31.9292   67.4715    8.0761 H   0  0  0  0  0  0  0  0  0  0  0  0
   31.1295   66.5849   10.0001 H   0  0  0  0  0  0  0  0  0  0  0  0
   30.5262   65.2478    6.4845 H   0  0  0  0  0  0  0  0  0  0  0  0
   33.2105   66.5173    6.6415 H   0  0  0  0  0  0  0  0  0  0  0  0
   33.3095   65.7571    9.7519 H   0  0  0  0  0  0  0  0  0  0  0  0
   30.5524   64.0469    8.5563 H   0  0  0  0  0  0  0  0  0  0  0  0
   30.3243   68.0542    6.1682 H   0  0  0  0  0  0  0  0  0  0  0  0
   29.1958   67.4977    8.1097 H   0  0  0  0  0  0  0  0  0  0  0  0
   27.0505   66.2212    7.2546 H   0  0  0  0  0  0  0  0  0  0  0  0
   28.1387   65.5658    5.9704 H   0  0  0  0  0  0  0  0  0  0  0  0
   28.3376   64.6286    8.4988 H   0  0  0  0  0  0  0  0  0  0  0  0
   28.5717   65.9384    9.6782 H   0  0  0  0  0  0  0  0  0  0  0  0
   28.5933   68.2006    6.3023 H   0  0  0  0  0  0  0  0  0  0  0  0
  2  1  1  0
  3  1  1  0
  1  4  1  0
  2  5  1  0
  6  2  1  0
  3  7  1  0
  8  3  1  0
  8  9  1  0
 10  6  1  0
 10  8  1  0
 11  9  1  0
  1 12  1  1
  2 13  1  1
  3 14  1  6
  4 15  1  0
  5 16  1  0
  6 17  1  0
  7 18  1  0
  8 19  1  1
  9 20  1  0
  9 21  1  0
 10 22  1  0
 10 23  1  0
 11 24  1  0
M  END
