
     RDKit          3D

 29 28  0  0  0  0  0  0  0  0999 V2000
   32.7886   19.9997  -23.0017 P   0  0  0  0  0  0  0  0  0  0  0  0
   33.0395   20.2021  -24.6467 O   0  0  0  0  0  0  0  0  0  0  0  0
   33.2804   18.4625  -22.5490 O   0  0  0  0  0  0  0  0  0  0  0  0
   33.5599   21.0459  -22.2340 O   0  0  0  0  0  0  0  0  0  0  0  0
   29.6227   19.1257  -19.8725 C   0  0  0  0  0  0  0  0  0  0  0  0
   29.1004   17.9980  -19.2148 O   0  0  0  0  0  0  0  0  0  0  0  0
   28.5566   19.7971  -20.7131 C   0  0  0  0  0  0  0  0  0  0  0  0
   27.6015   19.1272  -21.0748 O   0  0  0  0  0  0  0  0  0  0  0  0
   28.5867   21.2746  -21.1075 C   0  0  1  0  0  0  0  0  0  0  0  0
   29.5258   21.9468  -20.3057 O   0  0  0  0  0  0  0  0  0  0  0  0
   28.9513   21.5212  -22.5857 C   0  0  2  0  0  0  0  0  0  0  0  0
   28.0290   22.4337  -23.1297 O   0  0  0  0  0  0  0  0  0  0  0  0
   28.9258   20.2198  -23.4315 C   0  0  2  0  0  0  0  0  0  0  0  0
   28.2309   19.2054  -22.7443 O   0  0  0  0  0  0  0  0  0  0  0  0
   30.3565   19.7426  -23.7151 C   0  0  0  0  0  0  0  0  0  0  0  0
   31.1541   20.2020  -22.6529 O   0  0  0  0  0  0  0  0  0  0  0  0
   32.6140   19.4123  -25.0665 H   0  0  0  0  0  0  0  0  0  0  0  0
   33.7418   18.5892  -21.6817 H   0  0  0  0  0  0  0  0  0  0  0  0
   30.0007   19.8494  -19.1186 H   0  0  0  0  0  0  0  0  0  0  0  0
   30.4610   18.8022  -20.5262 H   0  0  0  0  0  0  0  0  0  0  0  0
   28.3700   17.6554  -19.7929 H   0  0  0  0  0  0  0  0  0  0  0  0
   27.5666   21.6868  -20.9251 H   0  0  0  0  0  0  0  0  0  0  0  0
   30.1681   22.3921  -20.9184 H   0  0  0  0  0  0  0  0  0  0  0  0
   29.9861   21.9371  -22.6101 H   0  0  0  0  0  0  0  0  0  0  0  0
   28.5501   23.1789  -23.5286 H   0  0  0  0  0  0  0  0  0  0  0  0
   28.4228   20.4327  -24.4040 H   0  0  0  0  0  0  0  0  0  0  0  0
   28.8682   18.4541  -22.6202 H   0  0  0  0  0  0  0  0  0  0  0  0
   30.3674   18.6305  -23.7445 H   0  0  0  0  0  0  0  0  0  0  0  0
   30.6990   20.1318  -24.7008 H   0  0  0  0  0  0  0  0  0  0  0  0
  2  1  1  0
  3  1  1  0
  4  1  2  0
  6  5  1  0
  7  5  1  0
  8  7  2  0
  9  7  1  0
  9 10  1  0
 11  9  1  0
 11 12  1  0
 13 11  1  0
 13 14  1  0
 15 13  1  0
 16 15  1  0
 16  1  1  0
  2 17  1  0
  3 18  1  0
  5 19  1  0
  5 20  1  0
  6 21  1  0
  9 22  1  6
 10 23  1  0
 11 24  1  1
 12 25  1  0
 13 26  1  6
 14 27  1  0
 15 28  1  0
 15 29  1  0
M  END
