
     RDKit          3D

 42 44  0  0  0  0  0  0  0  0999 V2000
   17.1148   -4.7455   16.2037 P   0  0  0  0  0  0  0  0  0  0  0  0
   10.8065   -4.9987   20.1952 P   0  0  0  0  0  0  0  0  0  0  0  0
   16.7421   -5.9510   15.3683 O   0  0  0  0  0  0  0  0  0  0  0  0
   18.4313   -5.0603   17.1926 O   0  0  0  0  0  0  0  0  0  0  0  0
   17.4940   -3.4395   15.2213 O   0  0  0  0  0  0  0  0  0  0  0  0
   11.5402   -4.2463   21.2784 O   0  0  0  0  0  0  0  0  0  0  0  0
    9.3270   -4.2755   19.8728 O   0  0  0  0  0  0  0  0  0  0  0  0
   10.5616   -6.5989   20.6403 O   0  0  0  0  0  0  0  0  0  0  0  0
   12.8600   -5.6182   18.8051 C   0  0  0  0  0  0  0  0  0  0  0  0
   11.6646   -4.8936   18.7538 O   0  0  0  0  0  0  0  0  0  0  0  0
   13.9466   -4.5940   18.4631 C   0  0  1  0  0  0  0  0  0  0  0  0
   14.2352   -3.8062   19.6175 O   0  0  0  0  0  0  0  0  0  0  0  0
   15.2496   -5.2165   17.9635 C   0  0  1  0  0  0  0  0  0  0  0  0
   15.8284   -4.2111   17.1513 O   0  0  0  0  0  0  0  0  0  0  0  0
   15.9662   -5.3466   19.2918 C   0  0  1  0  0  0  0  0  0  0  0  0
   17.3436   -5.5407   19.1684 O   0  0  0  0  0  0  0  0  0  0  0  0
   15.6055   -4.0061   19.9081 C   0  0  2  0  0  0  0  0  0  0  0  0
   17.8952   -1.2838   23.6412 N   0  0  0  0  0  0  0  0  0  0  0  0
   17.7804   -1.0013   22.3061 C   0  0  0  0  0  0  0  0  0  0  0  0
   17.1127   -1.8518   21.4714 N   0  0  0  0  0  0  0  0  0  0  0  0
   16.5720   -2.9813   21.9973 C   0  0  0  0  0  0  0  0  0  0  0  0
   16.6704   -3.2912   23.3174 C   0  0  0  0  0  0  0  0  0  0  0  0
   17.3569   -2.4173   24.1833 C   0  0  0  0  0  0  0  0  0  0  0  0
   17.5058   -2.6744   25.5793 N   0  0  0  0  0  0  0  0  0  0  0  0
   16.0533   -4.4714   23.5579 N   0  0  0  0  0  0  0  0  0  0  0  0
   15.5796   -4.8348   22.3290 C   0  0  0  0  0  0  0  0  0  0  0  0
   15.8873   -3.9411   21.3504 N   0  0  0  0  0  0  0  0  0  0  0  0
   18.3255   -6.0080   17.4601 H   0  0  0  0  0  0  0  0  0  0  0  0
   17.8895   -2.7683   15.8330 H   0  0  0  0  0  0  0  0  0  0  0  0
    9.5430   -3.3275   19.6838 H   0  0  0  0  0  0  0  0  0  0  0  0
    9.9808   -6.5521   21.4412 H   0  0  0  0  0  0  0  0  0  0  0  0
   12.8447   -6.4265   18.0406 H   0  0  0  0  0  0  0  0  0  0  0  0
   13.0402   -6.0443   19.8183 H   0  0  0  0  0  0  0  0  0  0  0  0
   13.5398   -3.9247   17.6686 H   0  0  0  0  0  0  0  0  0  0  0  0
   15.0957   -6.1881   17.4413 H   0  0  0  0  0  0  0  0  0  0  0  0
   15.5229   -6.1938   19.8660 H   0  0  0  0  0  0  0  0  0  0  0  0
   17.4878   -6.5219   19.1283 H   0  0  0  0  0  0  0  0  0  0  0  0
   16.1882   -3.2008   19.4025 H   0  0  0  0  0  0  0  0  0  0  0  0
   18.2190   -0.0959   21.9100 H   0  0  0  0  0  0  0  0  0  0  0  0
   17.6954   -1.8951   26.2480 H   0  0  0  0  0  0  0  0  0  0  0  0
   17.4264   -3.6484   25.9471 H   0  0  0  0  0  0  0  0  0  0  0  0
   15.0215   -5.7457   22.1584 H   0  0  0  0  0  0  0  0  0  0  0  0
  3  1  2  0
  4  1  1  0
  5  1  1  0
  6  2  2  0
  7  2  1  0
  8  2  1  0
 10  2  1  0
 10  9  1  0
 11  9  1  0
 12 11  1  0
 13 11  1  0
 13 14  1  0
 14  1  1  0
 15 13  1  0
 15 16  1  0
 17 15  1  0
 17 12  1  0
 19 18  2  0
 20 19  1  0
 21 20  2  0
 22 21  1  0
 23 22  2  0
 23 18  1  0
 24 23  1  0
 25 22  1  0
 26 25  2  0
 17 27  1  0
 27 26  1  0
 27 21  1  0
  4 28  1  0
  5 29  1  0
  7 30  1  0
  8 31  1  0
  9 32  1  0
  9 33  1  0
 11 34  1  6
 13 35  1  6
 15 36  1  1
 16 37  1  0
 17 38  1  6
 19 39  1  0
 24 40  1  0
 24 41  1  0
 26 42  1  0
M  END
