
     RDKit          3D

 41 41  0  0  0  0  0  0  0  0999 V2000
 -127.0846   31.6623  123.3792 P   0  0  0  0  0  0  0  0  0  0  0  0
 -133.3541   30.5933  128.1281 P   0  0  0  0  0  0  0  0  0  0  0  0
 -127.3840   32.1950  127.9130 C   0  0  0  0  0  0  0  0  0  0  0  0
 -128.0206   31.5645  124.7877 O   0  0  0  0  0  0  0  0  0  0  0  0
 -127.0720   32.6962  126.6883 C   0  0  0  0  0  0  0  0  0  0  0  0
 -130.4374   32.8765  125.0627 O   0  0  0  0  0  0  0  0  0  0  0  0
 -128.0708   32.7667  125.5413 C   0  0  2  0  0  0  0  0  0  0  0  0
 -131.0828   31.6599  127.5112 O   0  0  0  0  0  0  0  0  0  0  0  0
 -129.5014   32.8775  126.1134 C   0  0  2  0  0  0  0  0  0  0  0  0
 -125.3407   33.0639  128.9995 O   0  0  0  0  0  0  0  0  0  0  0  0
 -129.7409   31.6669  127.0459 C   0  0  1  0  0  0  0  0  0  0  0  0
 -126.3945   31.2355  129.8662 O   0  0  0  0  0  0  0  0  0  0  0  0
 -128.7845   31.7385  128.2531 C   0  0  0  0  0  0  0  0  0  0  0  0
 -125.6223   31.5375  123.7183 O   0  0  0  0  0  0  0  0  0  0  0  0
 -126.3626   32.1362  128.9838 C   0  0  0  0  0  0  0  0  0  0  0  0
 -127.3691   33.0853  122.5447 O   0  0  0  0  0  0  0  0  0  0  0  0
 -131.7950   30.4578  127.2084 C   0  0  2  0  0  0  0  0  0  0  0  0
 -127.5210   30.3781  122.3913 O   0  0  0  0  0  0  0  0  0  0  0  0
 -132.1267   30.3337  125.7043 C   0  0  0  0  0  0  0  0  0  0  0  0
 -129.8221   29.0902  127.6039 O   0  0  0  0  0  0  0  0  0  0  0  0
 -131.0758   29.2072  127.6990 C   0  0  0  0  0  0  0  0  0  0  0  0
 -131.8094   28.1781  128.2578 O   0  0  0  0  0  0  0  0  0  0  0  0
 -134.4728   31.1143  127.2549 O   0  0  0  0  0  0  0  0  0  0  0  0
 -133.1437   31.6385  129.4302 O   0  0  0  0  0  0  0  0  0  0  0  0
 -133.7390   29.0616  128.6907 O   0  0  0  0  0  0  0  0  0  0  0  0
 -126.0623   33.0323  126.4860 H   0  0  0  0  0  0  0  0  0  0  0  0
 -130.3823   33.7688  124.6310 H   0  0  0  0  0  0  0  0  0  0  0  0
 -127.8648   33.6763  124.9345 H   0  0  0  0  0  0  0  0  0  0  0  0
 -129.6051   33.8200  126.7025 H   0  0  0  0  0  0  0  0  0  0  0  0
 -124.6311   33.0454  129.7224 H   0  0  0  0  0  0  0  0  0  0  0  0
 -129.4774   30.7419  126.4856 H   0  0  0  0  0  0  0  0  0  0  0  0
 -128.7276   30.7409  128.7359 H   0  0  0  0  0  0  0  0  0  0  0  0
 -129.2027   32.4501  128.9984 H   0  0  0  0  0  0  0  0  0  0  0  0
 -128.3422   33.0799  122.3602 H   0  0  0  0  0  0  0  0  0  0  0  0
 -128.5025   30.4608  122.2879 H   0  0  0  0  0  0  0  0  0  0  0  0
 -132.8135   29.4786  125.5218 H   0  0  0  0  0  0  0  0  0  0  0  0
 -132.6174   31.2615  125.3413 H   0  0  0  0  0  0  0  0  0  0  0  0
 -131.2117   30.1731  125.0968 H   0  0  0  0  0  0  0  0  0  0  0  0
 -131.3554   27.3370  128.5931 H   0  0  0  0  0  0  0  0  0  0  0  0
 -132.5065   31.1741  130.0293 H   0  0  0  0  0  0  0  0  0  0  0  0
 -134.5305   29.1966  129.2704 H   0  0  0  0  0  0  0  0  0  0  0  0
  4  1  1  0
  5  3  2  0
  7  4  1  0
  7  5  1  0
  9  7  1  0
  9  6  1  0
 11  8  1  0
 11  9  1  0
 13 11  1  0
 13  3  1  0
 14  1  2  0
 15 12  2  0
 15  3  1  0
 15 10  1  0
 16  1  1  0
 17  8  1  6
 17  2  1  0
 18  1  1  0
 17 19  1  0
 21 17  1  0
 21 20  2  0
 22 21  1  0
 23  2  2  0
 24  2  1  0
 25  2  1  0
  5 26  1  0
  6 27  1  0
  7 28  1  6
  9 29  1  1
 10 30  1  0
 11 31  1  6
 13 32  1  0
 13 33  1  0
 16 34  1  0
 18 35  1  0
 19 36  1  0
 19 37  1  0
 19 38  1  0
 22 39  1  0
 24 40  1  0
 25 41  1  0
M  END
