
     RDKit          3D

 14 14  0  0  0  0  0  0  0  0999 V2000
  -35.4804  -21.0858   21.8097 C   0  0  0  0  0  0  0  0  0  0  0  0
  -36.9298  -21.9232   23.5060 O   0  0  0  0  0  0  0  0  0  0  0  0
  -36.7943  -21.5463   22.3122 C   0  0  0  0  0  0  0  0  0  0  0  0
  -35.3898  -20.5585   20.5538 N   0  0  0  0  0  0  0  0  0  0  0  0
  -37.8973  -21.5491   21.4767 O   0  0  0  0  0  0  0  0  0  0  0  0
  -34.2003  -20.1309   20.0396 C   0  0  0  0  0  0  0  0  0  0  0  0
  -33.0274  -20.2130   20.8026 C   0  0  0  0  0  0  0  0  0  0  0  0
  -33.0899  -20.7455   22.0940 C   0  0  0  0  0  0  0  0  0  0  0  0
  -34.3178  -21.1926   22.6016 C   0  0  0  0  0  0  0  0  0  0  0  0
  -37.8847  -22.0534   20.5981 H   0  0  0  0  0  0  0  0  0  0  0  0
  -34.1656  -19.7203   19.0394 H   0  0  0  0  0  0  0  0  0  0  0  0
  -32.0848  -19.8688   20.3971 H   0  0  0  0  0  0  0  0  0  0  0  0
  -32.1936  -20.8173   22.6965 H   0  0  0  0  0  0  0  0  0  0  0  0
  -34.3649  -21.6072   23.6008 H   0  0  0  0  0  0  0  0  0  0  0  0
  3  2  2  0
  3  1  1  0
  4  1  2  0
  5  3  1  0
  6  4  1  0
  7  6  2  0
  8  7  1  0
  9  8  2  0
  9  1  1  0
  5 10  1  0
  6 11  1  0
  7 12  1  0
  8 13  1  0
  9 14  1  0
M  END
