
     RDKit          3D

 14 14  0  0  0  0  0  0  0  0999 V2000
  -36.6544  -21.1448   22.1890 C   0  0  0  0  0  0  0  0  0  0  0  0
  -38.9213  -20.7951   22.8358 O   0  0  0  0  0  0  0  0  0  0  0  0
  -37.9683  -21.6053   22.6915 C   0  0  0  0  0  0  0  0  0  0  0  0
  -36.5638  -20.6175   20.9331 N   0  0  0  0  0  0  0  0  0  0  0  0
  -38.1700  -22.9411   22.9909 O   0  0  0  0  0  0  0  0  0  0  0  0
  -35.3743  -20.1899   20.4188 C   0  0  0  0  0  0  0  0  0  0  0  0
  -34.2014  -20.2719   21.1819 C   0  0  0  0  0  0  0  0  0  0  0  0
  -34.2639  -20.8045   22.4733 C   0  0  0  0  0  0  0  0  0  0  0  0
  -35.4918  -21.2516   22.9808 C   0  0  0  0  0  0  0  0  0  0  0  0
  -37.9097  -23.6677   22.3346 H   0  0  0  0  0  0  0  0  0  0  0  0
  -35.3396  -19.7792   19.4186 H   0  0  0  0  0  0  0  0  0  0  0  0
  -33.2588  -19.9277   20.7764 H   0  0  0  0  0  0  0  0  0  0  0  0
  -33.3677  -20.8762   23.0758 H   0  0  0  0  0  0  0  0  0  0  0  0
  -35.5389  -21.6662   23.9801 H   0  0  0  0  0  0  0  0  0  0  0  0
  3  2  2  0
  3  1  1  0
  4  1  2  0
  5  3  1  0
  6  4  1  0
  7  6  2  0
  8  7  1  0
  9  8  2  0
  9  1  1  0
  5 10  1  0
  6 11  1  0
  7 12  1  0
  8 13  1  0
  9 14  1  0
M  END
