
     RDKit          3D

 66 68  0  0  0  0  0  0  0  0999 V2000
   11.1797   39.2624   29.6657 C   0  0  0  0  0  0  0  0  0  0  0  0
   10.3539   39.2833   33.3212 N   0  0  0  0  0  0  0  0  0  0  0  0
   10.6256   39.8284   28.5142 O   0  0  0  0  0  0  0  0  0  0  0  0
    6.4404   40.8976   36.2870 S   0  0  0  0  0  0  0  0  0  0  0  0
   10.5503   39.5212   30.8726 C   0  0  0  0  0  0  0  0  0  0  0  0
    7.1585   40.5618   34.7813 N   0  0  0  0  0  0  0  0  0  0  0  0
    9.1257   39.7464   35.7288 O   0  0  0  0  0  0  0  0  0  0  0  0
   11.0258   38.9987   32.0849 C   0  0  0  0  0  0  0  0  0  0  0  0
    8.9679   45.3688   35.7919 N   0  0  0  0  0  0  0  0  0  0  0  0
    6.5563   39.6815   37.1536 O   0  0  0  0  0  0  0  0  0  0  0  0
    9.0673   39.9869   33.3369 C   0  0  1  0  0  0  0  0  0  0  0  0
   14.4225   37.7072   28.3994 N   0  0  0  0  0  0  0  0  0  0  0  0
    5.0007   41.2274   36.0535 O   0  0  0  0  0  0  0  0  0  0  0  0
    8.4814   40.0688   34.6938 C   0  0  0  0  0  0  0  0  0  0  0  0
   12.5244   38.2295   27.1817 N   0  0  0  0  0  0  0  0  0  0  0  0
    7.7110   43.7836   30.3271 O   0  0  0  0  0  0  0  0  0  0  0  0
    7.2782   42.2638   36.9798 C   0  0  0  0  0  0  0  0  0  0  0  0
   11.5382   44.2987   33.2879 O   0  0  0  0  0  0  0  0  0  0  0  0
    7.4526   42.3697   38.3656 C   0  0  0  0  0  0  0  0  0  0  0  0
    8.1285   43.4734   38.8982 C   0  0  0  0  0  0  0  0  0  0  0  0
    8.6333   44.4660   38.0486 C   0  0  0  0  0  0  0  0  0  0  0  0
    8.4628   44.3581   36.6603 C   0  0  0  0  0  0  0  0  0  0  0  0
    7.7846   43.2567   36.1293 C   0  0  0  0  0  0  0  0  0  0  0  0
    9.2301   41.3927   32.7867 C   0  0  0  0  0  0  0  0  0  0  0  0
    8.3526   41.9286   31.8129 C   0  0  0  0  0  0  0  0  0  0  0  0
    8.5471   43.2412   31.3316 C   0  0  0  0  0  0  0  0  0  0  0  0
    7.9879   45.0865   29.7747 C   0  0  0  0  0  0  0  0  0  0  0  0
    9.3545   45.1665   29.1277 C   0  0  0  0  0  0  0  0  0  0  0  0
    9.6100   44.0100   31.8607 C   0  0  0  0  0  0  0  0  0  0  0  0
   10.4749   43.4974   32.8214 C   0  0  0  0  0  0  0  0  0  0  0  0
   12.5096   43.8050   34.2202 C   0  0  0  0  0  0  0  0  0  0  0  0
   13.1385   44.9410   35.0045 C   0  0  0  0  0  0  0  0  0  0  0  0
   10.2724   42.1893   33.2868 C   0  0  0  0  0  0  0  0  0  0  0  0
   12.1662   38.1924   32.0725 C   0  0  0  0  0  0  0  0  0  0  0  0
   12.8109   37.9134   30.8648 C   0  0  0  0  0  0  0  0  0  0  0  0
   12.3405   38.4518   29.6357 C   0  0  0  0  0  0  0  0  0  0  0  0
   13.0657   38.1397   28.3606 C   0  0  0  0  0  0  0  0  0  0  0  0
    7.3224   41.1840   31.3352 F   0  0  0  0  0  0  0  0  0  0  0  0
   10.8712   39.1212   34.2155 H   0  0  0  0  0  0  0  0  0  0  0  0
   10.0757   40.6799   28.5357 H   0  0  0  0  0  0  0  0  0  0  0  0
    9.6866   40.1527   30.8210 H   0  0  0  0  0  0  0  0  0  0  0  0
    6.6159   40.7820   33.9159 H   0  0  0  0  0  0  0  0  0  0  0  0
    9.5053   46.1800   36.1713 H   0  0  0  0  0  0  0  0  0  0  0  0
    8.7981   45.3248   34.7626 H   0  0  0  0  0  0  0  0  0  0  0  0
    8.3143   39.4036   32.7702 H   0  0  0  0  0  0  0  0  0  0  0  0
   15.0830   37.9914   29.1532 H   0  0  0  0  0  0  0  0  0  0  0  0
   14.8504   37.2750   27.5499 H   0  0  0  0  0  0  0  0  0  0  0  0
   11.5725   38.4948   26.8777 H   0  0  0  0  0  0  0  0  0  0  0  0
    7.0648   41.6081   39.0299 H   0  0  0  0  0  0  0  0  0  0  0  0
    8.2622   43.5596   39.9688 H   0  0  0  0  0  0  0  0  0  0  0  0
    9.1549   45.3155   38.4712 H   0  0  0  0  0  0  0  0  0  0  0  0
    7.6453   43.1807   35.0579 H   0  0  0  0  0  0  0  0  0  0  0  0
    7.9541   45.8509   30.5820 H   0  0  0  0  0  0  0  0  0  0  0  0
    7.2301   45.3314   28.9984 H   0  0  0  0  0  0  0  0  0  0  0  0
   10.0216   45.8147   29.7342 H   0  0  0  0  0  0  0  0  0  0  0  0
    9.8005   44.1517   29.0581 H   0  0  0  0  0  0  0  0  0  0  0  0
    9.2640   45.5936   28.1066 H   0  0  0  0  0  0  0  0  0  0  0  0
    9.8009   45.0218   31.5360 H   0  0  0  0  0  0  0  0  0  0  0  0
   13.3266   43.2845   33.6742 H   0  0  0  0  0  0  0  0  0  0  0  0
   12.0262   43.0947   34.9255 H   0  0  0  0  0  0  0  0  0  0  0  0
   12.4081   45.7696   35.1188 H   0  0  0  0  0  0  0  0  0  0  0  0
   13.4427   44.5839   36.0112 H   0  0  0  0  0  0  0  0  0  0  0  0
   14.0332   45.3196   34.4665 H   0  0  0  0  0  0  0  0  0  0  0  0
   10.9164   41.7725   34.0485 H   0  0  0  0  0  0  0  0  0  0  0  0
   12.5466   37.7677   32.9932 H   0  0  0  0  0  0  0  0  0  0  0  0
   13.6580   37.2490   30.9162 H   0  0  0  0  0  0  0  0  0  0  0  0
  3  1  1  0
  5  1  2  0
  4  6  1  0
  8  5  1  0
  8  2  1  0
 10  4  2  0
 11  2  1  0
 13  4  2  0
 14 11  1  0
 14  7  2  0
 14  6  1  0
 17  4  1  0
 19 17  2  0
 20 19  1  0
 21 20  2  0
 22 21  1  0
 22  9  1  0
 23 17  1  0
 23 22  2  0
 24 11  1  0
 25 24  2  0
 26 25  1  0
 26 16  1  0
 27 16  1  0
 28 27  1  0
 29 26  2  0
 30 29  1  0
 30 18  1  0
 31 18  1  0
 32 31  1  0
 33 24  1  0
 33 30  2  0
 34  8  2  0
 35 34  1  0
 36 35  2  0
 36  1  1  0
 37 15  2  3
 37 36  1  0
 37 12  1  0
 38 25  1  0
  2 39  1  0
  3 40  1  0
  5 41  1  0
  6 42  1  0
  9 43  1  0
  9 44  1  0
 11 45  1  6
 12 46  1  0
 12 47  1  0
 15 48  1  0
 19 49  1  0
 20 50  1  0
 21 51  1  0
 23 52  1  0
 27 53  1  0
 27 54  1  0
 28 55  1  0
 28 56  1  0
 28 57  1  0
 29 58  1  0
 31 59  1  0
 31 60  1  0
 32 61  1  0
 32 62  1  0
 32 63  1  0
 33 64  1  0
 34 65  1  0
 35 66  1  0
M  END
