
     RDKit          3D

 49 52  0  0  0  0  0  0  0  0999 V2000
   13.1385   -3.6302   25.6667 C   0  0  0  0  0  0  0  0  0  0  0  0
   13.5400   -3.7732   24.3352 C   0  0  0  0  0  0  0  0  0  0  0  0
   12.6908   -4.3703   23.3966 C   0  0  0  0  0  0  0  0  0  0  0  0
   11.4263   -4.8416   23.7925 C   0  0  0  0  0  0  0  0  0  0  0  0
   11.0472   -4.7269   25.1408 C   0  0  0  0  0  0  0  0  0  0  0  0
   11.8802   -4.1056   26.1013 C   0  0  0  0  0  0  0  0  0  0  0  0
   11.4349   -3.9411   27.5381 C   0  0  0  0  0  0  0  0  0  0  0  0
   12.1779   -3.3487   28.4282 N   0  0  0  0  0  0  0  0  0  0  0  0
   10.1736   -4.4509   27.9759 N   0  0  0  0  0  0  0  0  0  0  0  0
   10.4540   -5.4523   22.7935 C   0  0  0  0  0  0  0  0  0  0  0  0
   14.4794  -12.6171   22.0242 C   0  0  0  0  0  0  0  0  0  0  0  0
   15.6381  -12.9982   22.6946 C   0  0  0  0  0  0  0  0  0  0  0  0
   16.8402  -13.0365   21.9695 C   0  0  0  0  0  0  0  0  0  0  0  0
   16.8470  -12.6959   20.6016 C   0  0  0  0  0  0  0  0  0  0  0  0
   15.6885  -12.3259   19.9743 N   0  0  0  0  0  0  0  0  0  0  0  0
   14.5137  -12.2847   20.6723 C   0  0  0  0  0  0  0  0  0  0  0  0
   13.2645  -11.9072   20.1587 C   0  0  0  0  0  0  0  0  0  0  0  0
   12.2660  -11.9445   21.1414 C   0  0  0  0  0  0  0  0  0  0  0  0
   12.9119  -12.4552   22.6266 S   0  0  0  0  0  0  0  0  0  0  0  0
   10.9227   -6.7497   22.3040 N   0  0  0  0  0  0  0  0  0  0  0  0
   10.1359   -7.9126   22.1342 C   0  0  0  0  0  0  0  0  0  0  0  0
   10.9674   -9.0472   21.6551 C   0  0  2  0  0  0  0  0  0  0  0  0
   12.1851   -8.3379   21.0559 C   0  0  0  0  0  0  0  0  0  0  0  0
   12.2433   -6.9726   21.7366 C   0  0  0  0  0  0  0  0  0  0  0  0
   10.3020   -9.8522   20.6382 N   0  0  0  0  0  0  0  0  0  0  0  0
   10.5747  -11.5273   20.8895 S   0  0  0  0  0  0  0  0  0  0  0  0
    9.7784  -11.9090   22.1002 O   0  0  0  0  0  0  0  0  0  0  0  0
   10.0661  -12.2349   19.6725 O   0  0  0  0  0  0  0  0  0  0  0  0
    8.9015   -7.9647   22.3908 O   0  0  0  0  0  0  0  0  0  0  0  0
   13.0989   -4.4903   22.0726 O   0  0  0  0  0  0  0  0  0  0  0  0
   13.8112   -3.1177   26.3376 H   0  0  0  0  0  0  0  0  0  0  0  0
   14.5091   -3.3993   24.0295 H   0  0  0  0  0  0  0  0  0  0  0  0
   10.0927   -5.1453   25.4194 H   0  0  0  0  0  0  0  0  0  0  0  0
   13.1282   -2.9586   28.2604 H   0  0  0  0  0  0  0  0  0  0  0  0
   10.0165   -4.7934   28.9475 H   0  0  0  0  0  0  0  0  0  0  0  0
    9.4099   -4.6165   27.2827 H   0  0  0  0  0  0  0  0  0  0  0  0
    9.4590   -5.5644   23.2765 H   0  0  0  0  0  0  0  0  0  0  0  0
   10.3028   -4.7719   21.9288 H   0  0  0  0  0  0  0  0  0  0  0  0
   15.6153  -13.2531   23.7461 H   0  0  0  0  0  0  0  0  0  0  0  0
   17.7598  -13.3269   22.4605 H   0  0  0  0  0  0  0  0  0  0  0  0
   17.7728  -12.7258   20.0429 H   0  0  0  0  0  0  0  0  0  0  0  0
   13.0949  -11.6077   19.1329 H   0  0  0  0  0  0  0  0  0  0  0  0
   11.2694   -9.6383   22.5497 H   0  0  0  0  0  0  0  0  0  0  0  0
   13.1131   -8.9187   21.2497 H   0  0  0  0  0  0  0  0  0  0  0  0
   12.0993   -8.1671   19.9604 H   0  0  0  0  0  0  0  0  0  0  0  0
   12.9998   -6.9783   22.5511 H   0  0  0  0  0  0  0  0  0  0  0  0
   12.4905   -6.1750   21.0024 H   0  0  0  0  0  0  0  0  0  0  0  0
   10.5738   -9.6192   19.6561 H   0  0  0  0  0  0  0  0  0  0  0  0
   13.2628   -3.6773   21.4903 H   0  0  0  0  0  0  0  0  0  0  0  0
  2  1  2  0
  3  2  1  0
  4  3  2  0
  5  4  1  0
  6  5  2  0
  6  1  1  0
  7  6  1  0
  8  7  2  3
  9  7  1  0
 10  4  1  0
 12 11  2  0
 13 12  1  0
 14 13  2  0
 15 14  1  0
 16 15  2  0
 16 11  1  0
 17 16  1  0
 18 17  2  0
 19 18  1  0
 19 11  1  0
 20 10  1  0
 21 20  1  0
 22 21  1  0
 23 22  1  0
 24 23  1  0
 24 20  1  0
 22 25  1  0
 26 25  1  0
 26 18  1  0
 27 26  2  0
 28 26  2  0
 29 21  2  0
 30  3  1  0
  1 31  1  0
  2 32  1  0
  5 33  1  0
  8 34  1  0
  9 35  1  0
  9 36  1  0
 10 37  1  0
 10 38  1  0
 12 39  1  0
 13 40  1  0
 14 41  1  0
 17 42  1  0
 22 43  1  1
 23 44  1  0
 23 45  1  0
 24 46  1  0
 24 47  1  0
 25 48  1  0
 30 49  1  0
M  END
