
     RDKit          3D

 33 34  0  0  0  0  0  0  0  0999 V2000
   25.4604   -2.1718    8.2125 P   0  0  0  0  0  0  0  0  0  0  0  0
   24.6857   -2.9774    7.1925 O   0  0  0  0  0  0  0  0  0  0  0  0
   26.2977   -3.2035    9.2328 O   0  0  0  0  0  0  0  0  0  0  0  0
   26.5686   -1.1559    7.4585 O   0  0  0  0  0  0  0  0  0  0  0  0
   23.3297   -0.7795    8.6169 C   0  0  0  0  0  0  0  0  0  0  0  0
   24.4809   -1.2604    9.2468 O   0  0  0  0  0  0  0  0  0  0  0  0
   22.5230   -0.0532    9.7085 C   0  0  1  0  0  0  0  0  0  0  0  0
   21.4586    0.6629    9.1240 O   0  0  0  0  0  0  0  0  0  0  0  0
   21.9531   -1.0093   10.7709 C   0  0  1  0  0  0  0  0  0  0  0  0
   21.9940   -0.4136   12.0513 O   0  0  0  0  0  0  0  0  0  0  0  0
   20.5314   -1.2174   10.2898 C   0  0  1  0  0  0  0  0  0  0  0  0
   19.6378   -1.5255   11.3375 O   0  0  0  0  0  0  0  0  0  0  0  0
   20.2438    0.1252    9.6002 C   0  0  2  0  0  0  0  0  0  0  0  0
   19.2708    0.0573    8.4961 N   0  0  0  0  0  0  0  0  0  0  0  0
   19.6475    0.0259    7.1740 C   0  0  0  0  0  0  0  0  0  0  0  0
   20.8572   -0.0832    6.8420 O   0  0  0  0  0  0  0  0  0  0  0  0
   18.6999    0.1281    6.2041 N   0  0  0  0  0  0  0  0  0  0  0  0
   17.3879    0.2754    6.5228 C   0  0  0  0  0  0  0  0  0  0  0  0
   16.5288    0.4015    5.6112 O   0  0  0  0  0  0  0  0  0  0  0  0
   17.0097    0.2883    7.8631 C   0  0  0  0  0  0  0  0  0  0  0  0
   17.9742    0.1853    8.8108 N   0  0  0  0  0  0  0  0  0  0  0  0
   26.9646   -2.6271    9.6845 H   0  0  0  0  0  0  0  0  0  0  0  0
   26.6025   -1.4700    6.5199 H   0  0  0  0  0  0  0  0  0  0  0  0
   23.5990   -0.0604    7.8115 H   0  0  0  0  0  0  0  0  0  0  0  0
   22.7375   -1.6214    8.2028 H   0  0  0  0  0  0  0  0  0  0  0  0
   23.2028    0.6833   10.1937 H   0  0  0  0  0  0  0  0  0  0  0  0
   22.4994   -1.9772   10.8110 H   0  0  0  0  0  0  0  0  0  0  0  0
   22.9309   -0.1563   12.2569 H   0  0  0  0  0  0  0  0  0  0  0  0
   20.5165   -2.0539    9.5611 H   0  0  0  0  0  0  0  0  0  0  0  0
   19.9451   -2.3500   11.7951 H   0  0  0  0  0  0  0  0  0  0  0  0
   19.8622    0.8427   10.3625 H   0  0  0  0  0  0  0  0  0  0  0  0
   18.9868    0.1114    5.1984 H   0  0  0  0  0  0  0  0  0  0  0  0
   15.9721    0.3964    8.1517 H   0  0  0  0  0  0  0  0  0  0  0  0
  2  1  2  0
  3  1  1  0
  4  1  1  0
  6  5  1  0
  6  1  1  0
  7  5  1  0
  8  7  1  0
  9  7  1  0
  9 10  1  0
 11  9  1  0
 11 12  1  0
 13 11  1  0
 13  8  1  0
 13 14  1  0
 15 14  1  0
 16 15  2  0
 17 15  1  0
 18 17  1  0
 19 18  2  0
 20 18  1  0
 21 20  2  0
 21 14  1  0
  3 22  1  0
  4 23  1  0
  5 24  1  0
  5 25  1  0
  7 26  1  1
  9 27  1  1
 10 28  1  0
 11 29  1  6
 12 30  1  0
 13 31  1  1
 17 32  1  0
 20 33  1  0
M  END
