
     RDKit          3D

 33 34  0  0  0  0  0  0  0  0999 V2000
   25.8009   -1.8787    7.4491 P   0  0  0  0  0  0  0  0  0  0  0  0
   25.0269   -2.6850    6.4291 O   0  0  0  0  0  0  0  0  0  0  0  0
   26.6319   -2.9098    8.4750 O   0  0  0  0  0  0  0  0  0  0  0  0
   26.9144   -0.8684    6.6954 O   0  0  0  0  0  0  0  0  0  0  0  0
   23.6731   -0.4787    7.8428 C   0  0  0  0  0  0  0  0  0  0  0  0
   24.8211   -0.9613    8.4776 O   0  0  0  0  0  0  0  0  0  0  0  0
   22.8654    0.2533    8.9297 C   0  0  1  0  0  0  0  0  0  0  0  0
   21.6886    0.7939    8.3726 O   0  0  0  0  0  0  0  0  0  0  0  0
   22.4825   -0.6573   10.1095 C   0  0  1  0  0  0  0  0  0  0  0  0
   22.5427    0.0541   11.3286 O   0  0  0  0  0  0  0  0  0  0  0  0
   21.0644   -1.0607    9.7602 C   0  0  1  0  0  0  0  0  0  0  0  0
   20.2857   -1.3660   10.8966 O   0  0  0  0  0  0  0  0  0  0  0  0
   20.5787    0.1742    8.9855 C   0  0  2  0  0  0  0  0  0  0  0  0
   19.5466   -0.0991    7.9705 N   0  0  0  0  0  0  0  0  0  0  0  0
   18.2613    0.3798    8.0694 C   0  0  0  0  0  0  0  0  0  0  0  0
   17.9358    1.1950    8.9722 O   0  0  0  0  0  0  0  0  0  0  0  0
   17.3184   -0.0431    7.1856 N   0  0  0  0  0  0  0  0  0  0  0  0
   17.6243   -0.9431    6.2156 C   0  0  0  0  0  0  0  0  0  0  0  0
   16.7301   -1.3477    5.4273 O   0  0  0  0  0  0  0  0  0  0  0  0
   18.9317   -1.4111    6.1084 C   0  0  0  0  0  0  0  0  0  0  0  0
   19.8530   -0.9741    7.0024 N   0  0  0  0  0  0  0  0  0  0  0  0
   26.8692   -2.3515    9.2580 H   0  0  0  0  0  0  0  0  0  0  0  0
   26.6607   -0.8810    5.7382 H   0  0  0  0  0  0  0  0  0  0  0  0
   23.9471    0.2371    7.0360 H   0  0  0  0  0  0  0  0  0  0  0  0
   23.0797   -1.3201    7.4294 H   0  0  0  0  0  0  0  0  0  0  0  0
   23.4882    1.1001    9.2971 H   0  0  0  0  0  0  0  0  0  0  0  0
   23.1374   -1.5528   10.1874 H   0  0  0  0  0  0  0  0  0  0  0  0
   22.2082   -0.5297   12.0590 H   0  0  0  0  0  0  0  0  0  0  0  0
   21.0954   -1.9572    9.1072 H   0  0  0  0  0  0  0  0  0  0  0  0
   20.7158   -2.1071   11.3960 H   0  0  0  0  0  0  0  0  0  0  0  0
   20.1707    0.9132    9.7128 H   0  0  0  0  0  0  0  0  0  0  0  0
   16.3390    0.3155    7.2649 H   0  0  0  0  0  0  0  0  0  0  0  0
   19.2112   -2.1229    5.3423 H   0  0  0  0  0  0  0  0  0  0  0  0
  2  1  2  0
  3  1  1  0
  4  1  1  0
  6  5  1  0
  6  1  1  0
  7  5  1  0
  8  7  1  0
  9  7  1  0
  9 10  1  0
 11  9  1  0
 11 12  1  0
 13 11  1  0
 13  8  1  0
 13 14  1  0
 15 14  1  0
 16 15  2  0
 17 15  1  0
 18 17  1  0
 19 18  2  0
 20 18  1  0
 21 20  2  0
 21 14  1  0
  3 22  1  0
  4 23  1  0
  5 24  1  0
  5 25  1  0
  7 26  1  1
  9 27  1  1
 10 28  1  0
 11 29  1  6
 12 30  1  0
 13 31  1  1
 17 32  1  0
 20 33  1  0
M  END
