
     RDKit          3D

 29 30  0  0  0  0  0  0  0  0999 V2000
  -23.1657   -0.0999   17.0336 N   0  0  0  0  0  0  0  0  0  0  0  0
  -22.6630   -1.3520   16.8279 C   0  0  0  0  0  0  0  0  0  0  0  0
  -23.4956   -2.4326   16.7993 N   0  0  0  0  0  0  0  0  0  0  0  0
  -24.8220   -2.2264   17.0013 C   0  0  0  0  0  0  0  0  0  0  0  0
  -25.3475   -0.9975   17.2254 C   0  0  0  0  0  0  0  0  0  0  0  0
  -24.5010    0.1196   17.2286 C   0  0  0  0  0  0  0  0  0  0  0  0
  -25.7962   -3.1458   17.0022 N   0  0  0  0  0  0  0  0  0  0  0  0
  -26.9201   -2.4255   17.2405 C   0  0  0  0  0  0  0  0  0  0  0  0
  -26.6871   -1.0890   17.3747 N   0  0  0  0  0  0  0  0  0  0  0  0
  -24.9758    1.4573   17.4048 N   0  0  0  0  0  0  0  0  0  0  0  0
  -24.7219    2.4430   16.3517 C   0  0  0  0  0  0  0  0  0  0  0  0
  -25.2058    3.8045   16.7618 C   0  0  0  0  0  0  0  0  0  0  0  0
  -26.2049    4.4915   16.1529 C   0  0  0  0  0  0  0  0  0  0  0  0
  -26.5310    5.9124   16.5742 C   0  0  0  0  0  0  0  0  0  0  0  0
  -27.0684    3.8692   15.0797 C   0  0  0  0  0  0  0  0  0  0  0  0
  -27.5853    5.9863   17.5002 O   0  0  0  0  0  0  0  0  0  0  0  0
  -21.6012   -1.4867   16.6747 H   0  0  0  0  0  0  0  0  0  0  0  0
  -25.7114   -4.1761   16.8567 H   0  0  0  0  0  0  0  0  0  0  0  0
  -27.9064   -2.8655   17.3059 H   0  0  0  0  0  0  0  0  0  0  0  0
  -25.5753    1.6907   18.2293 H   0  0  0  0  0  0  0  0  0  0  0  0
  -25.2136    2.1003   15.4182 H   0  0  0  0  0  0  0  0  0  0  0  0
  -23.6287    2.5054   16.1642 H   0  0  0  0  0  0  0  0  0  0  0  0
  -24.6237    4.2810   17.5443 H   0  0  0  0  0  0  0  0  0  0  0  0
  -26.8203    6.4871   15.6695 H   0  0  0  0  0  0  0  0  0  0  0  0
  -25.6209    6.3948   16.9982 H   0  0  0  0  0  0  0  0  0  0  0  0
  -27.5892    2.9751   15.4825 H   0  0  0  0  0  0  0  0  0  0  0  0
  -26.4423    3.5799   14.2095 H   0  0  0  0  0  0  0  0  0  0  0  0
  -27.8411    4.5842   14.7257 H   0  0  0  0  0  0  0  0  0  0  0  0
  -27.1680    6.0338   18.4000 H   0  0  0  0  0  0  0  0  0  0  0  0
  2  1  2  0
  3  2  1  0
  4  3  2  0
  5  4  1  0
  6  5  2  0
  6  1  1  0
  7  4  1  0
  8  7  1  0
  9  8  2  0
  9  5  1  0
 10  6  1  0
 11 10  1  0
 12 11  1  0
 13 12  2  3
 14 13  1  0
 15 13  1  0
 16 14  1  0
  2 17  1  0
  7 18  1  0
  8 19  1  0
 10 20  1  0
 11 21  1  0
 11 22  1  0
 12 23  1  0
 14 24  1  0
 14 25  1  0
 15 26  1  0
 15 27  1  0
 15 28  1  0
 16 29  1  0
M  END
