
     RDKit          3D

 26 27  0  0  0  0  0  0  0  0999 V2000
   69.6948   77.9562  103.0551 C   0  0  0  0  0  0  0  0  0  0  0  0
   70.0907   75.7127  104.0313 C   0  0  0  0  0  0  0  0  0  0  0  0
   65.2628   77.5596  101.0016 C   0  0  0  0  0  0  0  0  0  0  0  0
   64.3344   76.6619  100.4453 C   0  0  0  0  0  0  0  0  0  0  0  0
   63.1655   77.1547   99.8594 C   0  0  0  0  0  0  0  0  0  0  0  0
   62.9387   78.5354   99.8346 C   0  0  0  0  0  0  0  0  0  0  0  0
   64.9846   78.9401  100.9556 C   0  0  0  0  0  0  0  0  0  0  0  0
   66.5249   77.1110  101.6115 C   0  0  0  0  0  0  0  0  0  0  0  0
   66.9773   75.8132  101.7970 C   0  0  0  0  0  0  0  0  0  0  0  0
   68.2246   75.9373  102.3855 C   0  0  0  0  0  0  0  0  0  0  0  0
   68.4500   77.2988  102.5156 C   0  0  0  0  0  0  0  0  0  0  0  0
   63.8421   79.3919  100.3785 N   0  0  0  0  0  0  0  0  0  0  0  0
   70.5945   77.0718  103.8209 N   0  0  0  0  0  0  0  0  0  0  0  0
   67.4213   77.9646  102.0544 O   0  0  0  0  0  0  0  0  0  0  0  0
   69.3867   78.7973  103.7109 H   0  0  0  0  0  0  0  0  0  0  0  0
   70.2553   78.4015  102.2026 H   0  0  0  0  0  0  0  0  0  0  0  0
   69.1296   75.5851  103.4895 H   0  0  0  0  0  0  0  0  0  0  0  0
   70.8085   74.9687  103.6259 H   0  0  0  0  0  0  0  0  0  0  0  0
   69.9160   75.5226  105.1129 H   0  0  0  0  0  0  0  0  0  0  0  0
   64.5085   75.5945  100.4577 H   0  0  0  0  0  0  0  0  0  0  0  0
   62.4432   76.4750   99.4261 H   0  0  0  0  0  0  0  0  0  0  0  0
   62.0371   78.9253   99.3814 H   0  0  0  0  0  0  0  0  0  0  0  0
   65.6756   79.6613  101.3728 H   0  0  0  0  0  0  0  0  0  0  0  0
   66.4785   74.8904  101.5344 H   0  0  0  0  0  0  0  0  0  0  0  0
   68.8920   75.1343  102.6688 H   0  0  0  0  0  0  0  0  0  0  0  0
   71.5042   77.0072  103.3065 H   0  0  0  0  0  0  0  0  0  0  0  0
  4  3  2  0
  5  4  1  0
  6  5  2  0
  7  3  1  0
  8  3  1  0
  9  8  2  0
 10  9  1  0
 11 10  2  0
 11  1  1  0
 12  7  2  0
 12  6  1  0
 13  1  1  0
 13  2  1  0
 14 11  1  0
 14  8  1  0
  1 15  1  0
  1 16  1  0
  2 17  1  0
  2 18  1  0
  2 19  1  0
  4 20  1  0
  5 21  1  0
  6 22  1  0
  7 23  1  0
  9 24  1  0
 10 25  1  0
 13 26  1  0
M  END
