
     RDKit          3D

 26 27  0  0  0  0  0  0  0  0999 V2000
   52.3888   79.8107   57.2081 C   0  0  0  0  0  0  0  0  0  0  0  0
   52.4926   82.1366   56.3912 C   0  0  0  0  0  0  0  0  0  0  0  0
   55.9152   77.4591   59.6706 C   0  0  0  0  0  0  0  0  0  0  0  0
   56.4524   76.1718   59.8411 C   0  0  0  0  0  0  0  0  0  0  0  0
   57.7400   76.0284   60.3675 C   0  0  0  0  0  0  0  0  0  0  0  0
   58.4698   77.1697   60.7200 C   0  0  0  0  0  0  0  0  0  0  0  0
   56.6914   78.5735   60.0411 C   0  0  0  0  0  0  0  0  0  0  0  0
   54.5744   77.6963   59.1120 C   0  0  0  0  0  0  0  0  0  0  0  0
   53.4446   76.8978   59.2046 C   0  0  0  0  0  0  0  0  0  0  0  0
   52.4547   77.5746   58.5074 C   0  0  0  0  0  0  0  0  0  0  0  0
   53.0468   78.7352   58.0371 C   0  0  0  0  0  0  0  0  0  0  0  0
   57.9356   78.4065   60.5521 N   0  0  0  0  0  0  0  0  0  0  0  0
   53.0769   81.1132   57.2612 N   0  0  0  0  0  0  0  0  0  0  0  0
   54.3006   78.7760   58.4127 O   0  0  0  0  0  0  0  0  0  0  0  0
   51.3409   79.9357   57.5560 H   0  0  0  0  0  0  0  0  0  0  0  0
   52.3382   79.4772   56.1492 H   0  0  0  0  0  0  0  0  0  0  0  0
   52.9590   82.0696   55.3862 H   0  0  0  0  0  0  0  0  0  0  0  0
   51.3968   81.9857   56.2776 H   0  0  0  0  0  0  0  0  0  0  0  0
   52.6923   83.1511   56.7988 H   0  0  0  0  0  0  0  0  0  0  0  0
   55.8900   75.2890   59.5681 H   0  0  0  0  0  0  0  0  0  0  0  0
   58.1681   75.0436   60.5025 H   0  0  0  0  0  0  0  0  0  0  0  0
   59.4660   77.0677   61.1293 H   0  0  0  0  0  0  0  0  0  0  0  0
   56.3117   79.5805   59.9253 H   0  0  0  0  0  0  0  0  0  0  0  0
   53.3426   75.9471   59.7097 H   0  0  0  0  0  0  0  0  0  0  0  0
   51.4316   77.2560   58.3583 H   0  0  0  0  0  0  0  0  0  0  0  0
   54.0688   80.9693   56.9581 H   0  0  0  0  0  0  0  0  0  0  0  0
  4  3  2  0
  5  4  1  0
  6  5  2  0
  7  3  1  0
  8  3  1  0
  9  8  2  0
 10  9  1  0
 11 10  2  0
 11  1  1  0
 12  7  2  0
 12  6  1  0
 13  2  1  0
 13  1  1  0
 14 11  1  0
 14  8  1  0
  1 15  1  0
  1 16  1  0
  2 17  1  0
  2 18  1  0
  2 19  1  0
  4 20  1  0
  5 21  1  0
  6 22  1  0
  7 23  1  0
  9 24  1  0
 10 25  1  0
 13 26  1  0
M  END
