
     RDKit          3D

 27 28  0  0  0  0  0  0  0  0999 V2000
   -3.2311    9.5972   13.1399 C   0  0  0  0  0  0  0  0  0  0  0  0
   -3.2233    5.6617   12.7009 N   0  0  0  0  0  0  0  0  0  0  0  0
   -5.4577    7.0501   13.2388 O   0  0  0  0  0  0  0  0  0  0  0  0
   -4.0972    7.1195   12.6118 S   0  0  0  0  0  0  0  0  0  0  0  0
   -2.4587   10.5127   13.8421 C   0  0  0  0  0  0  0  0  0  0  0  0
   -2.2238    4.3283   14.4428 N   0  0  0  0  0  0  0  0  0  0  0  0
   -4.2111    7.5267   11.1782 O   0  0  0  0  0  0  0  0  0  0  0  0
   -4.7397    4.1060   14.3637 S   0  0  0  0  0  0  0  0  0  0  0  0
   -1.6468   10.0747   14.8925 C   0  0  0  0  0  0  0  0  0  0  0  0
   -2.5257    3.4218   15.3661 N   0  0  0  0  0  0  0  0  0  0  0  0
   -4.4592    2.2632   17.8188 O   0  0  0  0  0  0  0  0  0  0  0  0
   -4.5341    1.9110   16.3684 S   0  0  0  0  0  0  0  0  0  0  0  0
   -1.6138    8.7227   15.2488 C   0  0  0  0  0  0  0  0  0  0  0  0
   -3.6482    0.4737   16.0631 N   0  0  0  0  0  0  0  0  0  0  0  0
   -5.9590    1.7148   15.9510 O   0  0  0  0  0  0  0  0  0  0  0  0
   -2.3857    7.8045   14.5484 C   0  0  0  0  0  0  0  0  0  0  0  0
   -3.1671    8.2463   13.4836 C   0  0  0  0  0  0  0  0  0  0  0  0
   -3.3146    4.8034   13.8130 C   0  0  0  0  0  0  0  0  0  0  0  0
   -3.8514    3.1916   15.4477 C   0  0  0  0  0  0  0  0  0  0  0  0
   -3.8637    9.9442   12.3326 H   0  0  0  0  0  0  0  0  0  0  0  0
   -2.4234    5.5393   12.0407 H   0  0  0  0  0  0  0  0  0  0  0  0
   -2.4879   11.5624   13.5798 H   0  0  0  0  0  0  0  0  0  0  0  0
   -1.0454   10.7889   15.4400 H   0  0  0  0  0  0  0  0  0  0  0  0
   -0.9907    8.3932   16.0701 H   0  0  0  0  0  0  0  0  0  0  0  0
   -3.4449    0.4466   15.0388 H   0  0  0  0  0  0  0  0  0  0  0  0
   -4.2835   -0.3299   16.2685 H   0  0  0  0  0  0  0  0  0  0  0  0
   -2.3601    6.7587   14.8286 H   0  0  0  0  0  0  0  0  0  0  0  0
  4  3  2  0
  4  2  1  0
  5  1  2  0
  7  4  2  0
  9  5  1  0
 10  6  1  0
 12 11  2  0
 13  9  2  0
 12 14  1  0
 15 12  2  0
 16 13  1  0
 17 16  2  0
 17  4  1  0
 17  1  1  0
 18  8  1  0
 18  6  2  0
 18  2  1  0
 19  8  1  0
 19 12  1  0
 19 10  2  0
  1 20  1  0
  2 21  1  0
  5 22  1  0
  9 23  1  0
 13 24  1  0
 14 25  1  0
 14 26  1  0
 16 27  1  0
M  END
