
     RDKit          3D

 18 17  0  0  0  0  0  0  0  0999 V2000
   -2.3530   35.5778   10.8270 P   0  0  0  0  0  0  0  0  0  0  0  0
   -1.5962   34.0806   10.6120 O   0  0  0  0  0  0  0  0  0  0  0  0
   -3.8476   35.4324   10.6573 O   0  0  0  0  0  0  0  0  0  0  0  0
   -1.9726   36.1827   12.3470 O   0  0  0  0  0  0  0  0  0  0  0  0
   -1.7384   36.6097    9.6539 O   0  0  0  0  0  0  0  0  0  0  0  0
   -2.5882   32.0108   11.1833 C   0  0  0  0  0  0  0  0  0  0  0  0
   -2.3965   30.8748   11.6917 O   0  0  0  0  0  0  0  0  0  0  0  0
   -1.8417   33.2025   11.6930 C   0  0  1  0  0  0  0  0  0  0  0  0
   -3.4518   32.1530   10.1107 O   0  0  0  0  0  0  0  0  0  0  0  0
   -0.4913   32.7377   12.2370 C   0  0  0  0  0  0  0  0  0  0  0  0
    0.2215   32.0654   11.2306 O   0  0  0  0  0  0  0  0  0  0  0  0
   -1.0773   36.5952   12.2503 H   0  0  0  0  0  0  0  0  0  0  0  0
   -1.6379   36.0432    8.8477 H   0  0  0  0  0  0  0  0  0  0  0  0
   -2.4255   33.6459   12.5329 H   0  0  0  0  0  0  0  0  0  0  0  0
   -3.2783   31.6720    9.2363 H   0  0  0  0  0  0  0  0  0  0  0  0
    0.0873   33.6247   12.5799 H   0  0  0  0  0  0  0  0  0  0  0  0
   -0.6449   32.0623   13.1091 H   0  0  0  0  0  0  0  0  0  0  0  0
    1.1205   32.4848   11.2045 H   0  0  0  0  0  0  0  0  0  0  0  0
  2  1  1  0
  3  1  2  0
  4  1  1  0
  5  1  1  0
  7  6  2  0
  8  6  1  0
  8  2  1  0
  9  6  1  0
  8 10  1  0
 11 10  1  0
  4 12  1  0
  5 13  1  0
  8 14  1  1
  9 15  1  0
 10 16  1  0
 10 17  1  0
 11 18  1  0
M  END
