
     RDKit          3D

 18 17  0  0  0  0  0  0  0  0999 V2000
   25.7044   45.0947    1.6106 P   0  0  0  0  0  0  0  0  0  0  0  0
   24.7305   45.9148    2.7225 O   0  0  0  0  0  0  0  0  0  0  0  0
   25.6420   45.7769    0.2630 O   0  0  0  0  0  0  0  0  0  0  0  0
   27.2780   45.0560    2.1986 O   0  0  0  0  0  0  0  0  0  0  0  0
   25.1069   43.5314    1.5001 O   0  0  0  0  0  0  0  0  0  0  0  0
   25.5269   48.0961    2.2919 C   0  0  0  0  0  0  0  0  0  0  0  0
   24.7131   49.0543    2.3108 O   0  0  0  0  0  0  0  0  0  0  0  0
   25.4316   46.9954    3.3024 C   0  0  1  0  0  0  0  0  0  0  0  0
   26.5353   48.0706    1.3443 O   0  0  0  0  0  0  0  0  0  0  0  0
   24.6787   47.4511    4.5635 C   0  0  0  0  0  0  0  0  0  0  0  0
   23.4503   48.0555    4.2436 O   0  0  0  0  0  0  0  0  0  0  0  0
   27.7936   45.6662    1.6131 H   0  0  0  0  0  0  0  0  0  0  0  0
   25.1889   43.1650    2.4166 H   0  0  0  0  0  0  0  0  0  0  0  0
   26.4719   46.7524    3.6243 H   0  0  0  0  0  0  0  0  0  0  0  0
   26.7587   47.2181    0.8448 H   0  0  0  0  0  0  0  0  0  0  0  0
   24.4844   46.5682    5.2091 H   0  0  0  0  0  0  0  0  0  0  0  0
   25.3170   48.1500    5.1536 H   0  0  0  0  0  0  0  0  0  0  0  0
   23.2907   48.7661    4.9181 H   0  0  0  0  0  0  0  0  0  0  0  0
  2  1  1  0
  3  1  2  0
  4  1  1  0
  5  1  1  0
  7  6  2  0
  8  6  1  0
  8  2  1  0
  9  6  1  0
  8 10  1  0
 11 10  1  0
  4 12  1  0
  5 13  1  0
  8 14  1  1
  9 15  1  0
 10 16  1  0
 10 17  1  0
 11 18  1  0
M  END
