
     RDKit          3D

 22 23  0  0  0  0  0  0  0  0999 V2000
   16.6337    9.1294  -14.7622 N   0  0  0  0  0  0  0  0  0  0  0  0
   16.1715   10.1891  -15.5016 C   0  0  0  0  0  0  0  0  0  0  0  0
   14.8912   10.1165  -16.1156 N   0  0  0  0  0  0  0  0  0  0  0  0
   16.9327   11.3173  -15.6539 N   0  0  0  0  0  0  0  0  0  0  0  0
   18.1540   11.3612  -15.0616 C   0  0  0  0  0  0  0  0  0  0  0  0
   18.6305   10.3207  -14.3228 C   0  0  0  0  0  0  0  0  0  0  0  0
   17.8574    9.1711  -14.1589 C   0  0  0  0  0  0  0  0  0  0  0  0
   18.2678    8.1943  -13.4710 O   0  0  0  0  0  0  0  0  0  0  0  0
   19.8832   10.6933  -13.8662 C   0  0  0  0  0  0  0  0  0  0  0  0
   20.1002   11.9789  -14.3644 C   0  0  0  0  0  0  0  0  0  0  0  0
   19.0335   12.3815  -15.0990 N   0  0  0  0  0  0  0  0  0  0  0  0
   20.8051    9.8892  -13.0012 C   0  0  0  0  0  0  0  0  0  0  0  0
   21.6090   10.7801  -12.1727 N   0  0  0  0  0  0  0  0  0  0  0  0
   16.0394    8.2763  -14.6536 H   0  0  0  0  0  0  0  0  0  0  0  0
   14.3216   10.9812  -16.2494 H   0  0  0  0  0  0  0  0  0  0  0  0
   14.5043    9.2024  -16.4398 H   0  0  0  0  0  0  0  0  0  0  0  0
   20.9829   12.5823  -14.1978 H   0  0  0  0  0  0  0  0  0  0  0  0
   18.9179   13.2960  -15.5894 H   0  0  0  0  0  0  0  0  0  0  0  0
   20.1991    9.2219  -12.3512 H   0  0  0  0  0  0  0  0  0  0  0  0
   21.4671    9.2551  -13.6321 H   0  0  0  0  0  0  0  0  0  0  0  0
   21.0441   11.0423  -11.3320 H   0  0  0  0  0  0  0  0  0  0  0  0
   21.7653   11.6615  -12.7131 H   0  0  0  0  0  0  0  0  0  0  0  0
  2  1  1  0
  3  2  1  0
  4  2  2  0
  5  4  1  0
  6  5  2  0
  7  1  1  0
  7  6  1  0
  8  7  2  0
  9  6  1  0
 10  9  2  0
 11 10  1  0
 11  5  1  0
 12  9  1  0
 13 12  1  0
  1 14  1  0
  3 15  1  0
  3 16  1  0
 10 17  1  0
 11 18  1  0
 12 19  1  0
 12 20  1  0
 13 21  1  0
 13 22  1  0
M  END
