
     RDKit          3D

 22 23  0  0  0  0  0  0  0  0999 V2000
   22.8339   26.7096    3.9730 N   0  0  0  0  0  0  0  0  0  0  0  0
   24.0671   26.1166    4.0399 C   0  0  0  0  0  0  0  0  0  0  0  0
   24.5960   25.7215    5.2989 N   0  0  0  0  0  0  0  0  0  0  0  0
   24.7959   25.9024    2.9048 N   0  0  0  0  0  0  0  0  0  0  0  0
   24.2736   26.2840    1.7126 C   0  0  0  0  0  0  0  0  0  0  0  0
   23.0448   26.8715    1.6143 C   0  0  0  0  0  0  0  0  0  0  0  0
   22.2984   27.0979    2.7783 C   0  0  0  0  0  0  0  0  0  0  0  0
   21.1599   27.6419    2.7433 O   0  0  0  0  0  0  0  0  0  0  0  0
   22.8333   27.1135    0.2576 C   0  0  0  0  0  0  0  0  0  0  0  0
   23.9880   26.6703   -0.3874 C   0  0  0  0  0  0  0  0  0  0  0  0
   24.8611   26.1558    0.5092 N   0  0  0  0  0  0  0  0  0  0  0  0
   21.6784   27.8048   -0.4103 C   0  0  0  0  0  0  0  0  0  0  0  0
   21.0135   28.7206    0.5075 N   0  0  0  0  0  0  0  0  0  0  0  0
   22.2900   26.8684    4.8515 H   0  0  0  0  0  0  0  0  0  0  0  0
   25.5538   26.0224    5.5857 H   0  0  0  0  0  0  0  0  0  0  0  0
   24.0372   25.1280    5.9513 H   0  0  0  0  0  0  0  0  0  0  0  0
   24.1793   26.7275   -1.4511 H   0  0  0  0  0  0  0  0  0  0  0  0
   25.8019   25.7509    0.3071 H   0  0  0  0  0  0  0  0  0  0  0  0
   22.0668   28.3749   -1.2813 H   0  0  0  0  0  0  0  0  0  0  0  0
   20.9489   27.0514   -0.7834 H   0  0  0  0  0  0  0  0  0  0  0  0
   21.7445   29.3203    0.9554 H   0  0  0  0  0  0  0  0  0  0  0  0
   20.5855   28.1503    1.2723 H   0  0  0  0  0  0  0  0  0  0  0  0
  2  1  1  0
  3  2  1  0
  4  2  2  0
  5  4  1  0
  6  5  2  0
  7  6  1  0
  7  1  1  0
  8  7  2  0
  9  6  1  0
 10  9  2  0
 11 10  1  0
 11  5  1  0
 12  9  1  0
 13 12  1  0
  1 14  1  0
  3 15  1  0
  3 16  1  0
 10 17  1  0
 11 18  1  0
 12 19  1  0
 12 20  1  0
 13 21  1  0
 13 22  1  0
M  END
