
     RDKit          3D

 26 26  0  0  0  0  0  0  0  0999 V2000
    9.4269   40.4574    3.4275 N   0  0  0  0  0  0  0  0  0  0  0  0
    8.0980   43.0383   10.1553 P   0  0  0  0  0  0  0  0  0  0  0  0
   10.4714   42.6971    3.7971 C   0  0  0  0  0  0  0  0  0  0  0  0
    8.2918   38.1750    2.1084 O   0  0  0  0  0  0  0  0  0  0  0  0
    9.6847   41.5011    4.2525 C   0  0  0  0  0  0  0  0  0  0  0  0
    8.0058   37.1302    4.1255 O   0  0  0  0  0  0  0  0  0  0  0  0
    8.7110   39.4877    4.0381 C   0  0  0  0  0  0  0  0  0  0  0  0
    8.3195   43.1818    8.4903 O   0  0  0  0  0  0  0  0  0  0  0  0
    8.3316   38.2404    3.3650 C   0  0  0  0  0  0  0  0  0  0  0  0
    8.3850   41.6295   10.6317 O   0  0  0  0  0  0  0  0  0  0  0  0
    9.1855   41.3570    5.5399 C   0  0  0  0  0  0  0  0  0  0  0  0
    6.4928   43.4345   10.4652 O   0  0  0  0  0  0  0  0  0  0  0  0
    9.3444   42.4108    6.5725 C   0  0  0  0  0  0  0  0  0  0  0  0
    9.0975   44.1392   10.9362 O   0  0  0  0  0  0  0  0  0  0  0  0
    8.9660   42.0460    7.9810 C   0  0  0  0  0  0  0  0  0  0  0  0
    8.3639   39.8847    5.6442 S   0  0  0  0  0  0  0  0  0  0  0  0
   11.4496   42.7259    4.3207 H   0  0  0  0  0  0  0  0  0  0  0  0
    9.9075   43.6298    4.0077 H   0  0  0  0  0  0  0  0  0  0  0  0
   10.6565   42.6384    2.7039 H   0  0  0  0  0  0  0  0  0  0  0  0
    7.7373   36.2584    3.6847 H   0  0  0  0  0  0  0  0  0  0  0  0
    6.0310   42.5634   10.5609 H   0  0  0  0  0  0  0  0  0  0  0  0
    8.7502   43.2991    6.2656 H   0  0  0  0  0  0  0  0  0  0  0  0
   10.4161   42.7127    6.5674 H   0  0  0  0  0  0  0  0  0  0  0  0
    8.5873   44.9881   10.9359 H   0  0  0  0  0  0  0  0  0  0  0  0
    8.2846   41.1659    7.9754 H   0  0  0  0  0  0  0  0  0  0  0  0
    9.8942   41.8248    8.5583 H   0  0  0  0  0  0  0  0  0  0  0  0
  5  1  1  0
  5  3  1  0
  7  1  2  0
  8  2  1  0
  9  4  2  0
  9  6  1  0
  9  7  1  0
 10  2  2  0
 11  5  2  0
 12  2  1  0
 13 11  1  0
 14  2  1  0
 15 13  1  0
 15  8  1  0
 16 11  1  0
 16  7  1  0
  3 17  1  0
  3 18  1  0
  3 19  1  0
  6 20  1  0
 12 21  1  0
 13 22  1  0
 13 23  1  0
 14 24  1  0
 15 25  1  0
 15 26  1  0
M  END
