
     RDKit          3D

 16 16  0  0  0  0  0  0  0  0999 V2000
    9.4597  -13.4483   40.4029 C   0  0  0  0  0  0  0  0  0  0  0  0
    9.4895  -13.9375   41.7127 C   0  0  0  0  0  0  0  0  0  0  0  0
   10.7083  -14.0469   42.3893 C   0  0  0  0  0  0  0  0  0  0  0  0
   11.9026  -13.6778   41.7543 C   0  0  0  0  0  0  0  0  0  0  0  0
   11.8646  -13.1923   40.4403 C   0  0  0  0  0  0  0  0  0  0  0  0
   10.6492  -13.0757   39.7695 C   0  0  0  0  0  0  0  0  0  0  0  0
    8.2440  -13.3332   39.7368 O   0  0  0  0  0  0  0  0  0  0  0  0
    8.3031  -14.3112   42.3364 O   0  0  0  0  0  0  0  0  0  0  0  0
   13.1507  -13.7909   42.4442 N   0  0  0  0  0  0  0  0  0  0  0  0
   13.1721  -14.1188   43.7739 O   0  0  0  0  0  0  0  0  0  0  0  0
   14.2277  -13.5692   41.8544 O   0  0  0  0  0  0  0  0  0  0  0  0
   10.7243  -14.4289   43.4023 H   0  0  0  0  0  0  0  0  0  0  0  0
   12.7751  -12.8949   39.9355 H   0  0  0  0  0  0  0  0  0  0  0  0
   10.6321  -12.6954   38.7559 H   0  0  0  0  0  0  0  0  0  0  0  0
    7.4917  -13.9954   39.8870 H   0  0  0  0  0  0  0  0  0  0  0  0
    8.0840  -15.2831   42.5221 H   0  0  0  0  0  0  0  0  0  0  0  0
  2  1  2  0
  3  2  1  0
  4  3  2  0
  5  4  1  0
  6  1  1  0
  6  5  2  0
  7  1  1  0
  8  2  1  0
  9  4  1  0
 10  9  1  0
 11  9  2  0
  3 12  1  0
  5 13  1  0
  6 14  1  0
  7 15  1  0
  8 16  1  0
M  CHG  2   9   1  10  -1
M  END
