
     RDKit          3D

 47 49  0  0  0  0  0  0  0  0999 V2000
   20.0257   50.2865    9.2843 N   0  0  0  0  0  0  0  0  0  0  0  0
   19.1875   51.4896    9.2257 C   0  0  2  0  0  0  0  0  0  0  0  0
   20.8410   49.9540   10.4064 C   0  0  0  0  0  0  0  0  0  0  0  0
   20.7446   50.5819   11.5268 N   0  0  0  0  0  0  0  0  0  0  0  0
   21.8279   48.4794   10.4311 S   0  0  0  0  0  0  0  0  0  0  0  0
   17.6846   51.1423    9.3448 C   0  0  2  0  0  0  0  0  0  0  0  0
   21.5830   48.4851   12.2349 C   0  0  2  0  0  0  0  0  0  0  0  0
   17.4438   50.3004   10.4437 O   0  0  0  0  0  0  0  0  0  0  0  0
   17.1887   50.4731    8.0560 C   0  0  1  0  0  0  0  0  0  0  0  0
   20.2457   47.8454   12.6198 C   0  0  1  0  0  0  0  0  0  0  0  0
   15.8082   50.2219    8.1164 O   0  0  0  0  0  0  0  0  0  0  0  0
   20.3807   46.4626   12.8299 O   0  0  0  0  0  0  0  0  0  0  0  0
   17.5248   51.3912    6.8723 C   0  0  2  0  0  0  0  0  0  0  0  0
   19.7815   48.5860   13.8843 C   0  0  2  0  0  0  0  0  0  0  0  0
   17.0750   50.8405    5.6585 O   0  0  0  0  0  0  0  0  0  0  0  0
   18.3910   48.7867   13.8269 O   0  0  0  0  0  0  0  0  0  0  0  0
   19.0441   51.6644    6.8463 C   0  0  2  0  0  0  0  0  0  0  0  0
   20.5901   49.9232   13.9428 C   0  0  1  0  0  0  0  0  0  0  0  0
   19.4836   52.2588    8.0638 O   0  0  0  0  0  0  0  0  0  0  0  0
   21.5021   49.8512   15.0136 O   0  0  0  0  0  0  0  0  0  0  0  0
   19.3722   52.6300    5.6956 C   0  0  0  0  0  0  0  0  0  0  0  0
   21.4303   49.9432   12.6416 C   0  0  2  0  0  0  0  0  0  0  0  0
   20.7597   52.7686    5.5500 O   0  0  0  0  0  0  0  0  0  0  0  0
   19.7474   51.2098   14.1627 C   0  0  0  0  0  0  0  0  0  0  0  0
   18.7920   51.4016   13.1587 O   0  0  0  0  0  0  0  0  0  0  0  0
   19.9840   49.5894    8.5092 H   0  0  0  0  0  0  0  0  0  0  0  0
   19.4188   52.1450   10.0916 H   0  0  0  0  0  0  0  0  0  0  0  0
   17.1198   52.0944    9.4875 H   0  0  0  0  0  0  0  0  0  0  0  0
   22.4355   48.0057   12.7647 H   0  0  0  0  0  0  0  0  0  0  0  0
   17.5903   50.8460   11.2602 H   0  0  0  0  0  0  0  0  0  0  0  0
   17.7000   49.4951    7.9234 H   0  0  0  0  0  0  0  0  0  0  0  0
   19.5028   48.0184   11.8043 H   0  0  0  0  0  0  0  0  0  0  0  0
   15.4546   50.6526    8.9386 H   0  0  0  0  0  0  0  0  0  0  0  0
   19.4785   46.1244   13.0691 H   0  0  0  0  0  0  0  0  0  0  0  0
   16.9981   52.3620    7.0140 H   0  0  0  0  0  0  0  0  0  0  0  0
   20.0258   47.9486   14.7685 H   0  0  0  0  0  0  0  0  0  0  0  0
   17.5526   49.9800    5.5259 H   0  0  0  0  0  0  0  0  0  0  0  0
   18.0857   48.9382   14.7592 H   0  0  0  0  0  0  0  0  0  0  0  0
   19.5935   50.7163    6.6563 H   0  0  0  0  0  0  0  0  0  0  0  0
   20.9863   49.7576   15.8580 H   0  0  0  0  0  0  0  0  0  0  0  0
   18.9360   53.6291    5.9111 H   0  0  0  0  0  0  0  0  0  0  0  0
   18.9346   52.2729    4.7356 H   0  0  0  0  0  0  0  0  0  0  0  0
   22.4233   50.4246   12.7877 H   0  0  0  0  0  0  0  0  0  0  0  0
   20.9454   53.7426    5.4969 H   0  0  0  0  0  0  0  0  0  0  0  0
   20.4331   52.0869   14.1889 H   0  0  0  0  0  0  0  0  0  0  0  0
   19.2314   51.1526   15.1476 H   0  0  0  0  0  0  0  0  0  0  0  0
   18.3253   52.2497   13.3772 H   0  0  0  0  0  0  0  0  0  0  0  0
  2  1  1  0
  3  1  1  0
  4  3  2  0
  5  3  1  0
  6  2  1  0
  7  5  1  0
  6  8  1  0
  9  6  1  0
 10  7  1  0
  9 11  1  0
 10 12  1  0
 13  9  1  0
 14 10  1  0
 13 15  1  0
 14 16  1  0
 17 13  1  0
 18 14  1  0
 19 17  1  0
 19  2  1  0
 18 20  1  1
 17 21  1  0
 22  7  1  0
 22 18  1  0
 22  4  1  0
 23 21  1  0
 24 18  1  0
 25 24  1  0
  1 26  1  0
  2 27  1  1
  6 28  1  1
  7 29  1  1
  8 30  1  0
  9 31  1  6
 10 32  1  6
 11 33  1  0
 12 34  1  0
 13 35  1  1
 14 36  1  1
 15 37  1  0
 16 38  1  0
 17 39  1  6
 20 40  1  0
 21 41  1  0
 21 42  1  0
 22 43  1  1
 23 44  1  0
 24 45  1  0
 24 46  1  0
 25 47  1  0
M  END
