
     RDKit          3D

 21 21  0  0  0  0  0  0  0  0999 V2000
    3.1859    9.6609    9.2930 Cl  0  0  0  0  0  0  0  0  0  0  0  0
    1.4863    9.6302    8.8530 C   0  0  0  0  0  0  0  0  0  0  0  0
    0.7859   10.8402    8.8357 C   0  0  0  0  0  0  0  0  0  0  0  0
   -0.5711   10.8554    8.5128 C   0  0  0  0  0  0  0  0  0  0  0  0
   -1.2336    9.6639    8.2074 C   0  0  0  0  0  0  0  0  0  0  0  0
   -0.5445    8.4501    8.2256 C   0  0  0  0  0  0  0  0  0  0  0  0
    0.8248    8.4229    8.5350 C   0  0  0  0  0  0  0  0  0  0  0  0
    1.5176    7.0996    8.6744 C   0  0  0  0  0  0  0  0  0  0  0  0
    0.2444    5.8292    8.3854 S   0  0  0  0  0  0  0  0  0  0  0  0
    0.2156    4.9940    9.9708 C   0  0  0  0  0  0  0  0  0  0  0  0
   -0.8158    5.1567   10.7341 N   0  0  0  0  0  0  0  0  0  0  0  0
    1.3125    4.2130   10.4363 N   0  0  0  0  0  0  0  0  0  0  0  0
    1.2897   11.7676    9.0775 H   0  0  0  0  0  0  0  0  0  0  0  0
   -1.1130   11.7923    8.5019 H   0  0  0  0  0  0  0  0  0  0  0  0
   -2.2886    9.6810    7.9662 H   0  0  0  0  0  0  0  0  0  0  0  0
   -1.0817    7.5341    8.0124 H   0  0  0  0  0  0  0  0  0  0  0  0
    2.3324    7.0018    7.9247 H   0  0  0  0  0  0  0  0  0  0  0  0
    1.9504    6.9979    9.6910 H   0  0  0  0  0  0  0  0  0  0  0  0
   -1.6302    5.7394   10.4374 H   0  0  0  0  0  0  0  0  0  0  0  0
    1.6350    3.3464    9.9583 H   0  0  0  0  0  0  0  0  0  0  0  0
    1.8827    4.5528   11.2427 H   0  0  0  0  0  0  0  0  0  0  0  0
  2  1  1  0
  3  2  2  0
  4  3  1  0
  5  4  2  0
  6  5  1  0
  7  6  2  0
  7  2  1  0
  8  7  1  0
  9  8  1  0
 10  9  1  0
 11 10  2  3
 12 10  1  0
  3 13  1  0
  4 14  1  0
  5 15  1  0
  6 16  1  0
  8 17  1  0
  8 18  1  0
 11 19  1  0
 12 20  1  0
 12 21  1  0
M  END
