
     RDKit          3D

 34 35  0  0  0  0  0  0  0  0999 V2000
   18.0168   38.2337   27.1963 P   0  0  0  0  0  0  0  0  0  0  0  0
   16.3013   38.6363   26.8009 C   0  0  0  0  0  0  0  0  0  0  0  0
   14.9139   40.4749   26.4043 C   0  0  2  0  0  0  0  0  0  0  0  0
   16.1997   40.0346   26.7905 O   0  0  0  0  0  0  0  0  0  0  0  0
   15.0780   41.9452   26.0351 C   0  0  0  0  0  0  0  0  0  0  0  0
   14.6050   42.7455   27.2319 C   0  0  0  0  0  0  0  0  0  0  0  0
   13.5146   41.9052   27.8652 C   0  0  0  0  0  0  0  0  0  0  0  0
   13.9156   40.4516   27.5958 C   0  0  1  0  0  0  0  0  0  0  0  0
   12.7386   39.5670   27.3638 N   0  0  0  0  0  0  0  0  0  0  0  0
   11.8170   39.3455   28.3639 C   0  0  0  0  0  0  0  0  0  0  0  0
   11.9286   39.9323   29.4735 O   0  0  0  0  0  0  0  0  0  0  0  0
   10.7693   38.4934   28.1708 N   0  0  0  0  0  0  0  0  0  0  0  0
   10.5959   37.8595   26.9834 C   0  0  0  0  0  0  0  0  0  0  0  0
    9.6271   37.0707   26.8232 O   0  0  0  0  0  0  0  0  0  0  0  0
   11.4918   38.0864   25.9420 C   0  0  0  0  0  0  0  0  0  0  0  0
   12.5650   38.9504   26.1529 C   0  0  0  0  0  0  0  0  0  0  0  0
   18.4808   39.0223   28.4023 O   0  0  0  0  0  0  0  0  0  0  0  0
   18.0843   36.5891   27.5068 O   0  0  0  0  0  0  0  0  0  0  0  0
   18.9956   38.5945   25.8772 O   0  0  0  0  0  0  0  0  0  0  0  0
   15.6442   38.1983   27.5827 H   0  0  0  0  0  0  0  0  0  0  0  0
   16.0588   38.2005   25.8066 H   0  0  0  0  0  0  0  0  0  0  0  0
   14.5368   39.9170   25.5152 H   0  0  0  0  0  0  0  0  0  0  0  0
   16.1237   42.2116   25.7626 H   0  0  0  0  0  0  0  0  0  0  0  0
   14.4238   42.1791   25.1656 H   0  0  0  0  0  0  0  0  0  0  0  0
   14.2249   43.7451   26.9288 H   0  0  0  0  0  0  0  0  0  0  0  0
   15.4448   42.8724   27.9508 H   0  0  0  0  0  0  0  0  0  0  0  0
   12.5418   42.1543   27.3894 H   0  0  0  0  0  0  0  0  0  0  0  0
   13.4359   42.1098   28.9554 H   0  0  0  0  0  0  0  0  0  0  0  0
   14.4838   40.1270   28.4955 H   0  0  0  0  0  0  0  0  0  0  0  0
   10.0871   38.3295   28.9465 H   0  0  0  0  0  0  0  0  0  0  0  0
   11.3678   37.5935   24.9856 H   0  0  0  0  0  0  0  0  0  0  0  0
   13.2712   39.1086   25.3467 H   0  0  0  0  0  0  0  0  0  0  0  0
   19.0385   36.3494   27.3924 H   0  0  0  0  0  0  0  0  0  0  0  0
   19.0937   39.5801   25.8949 H   0  0  0  0  0  0  0  0  0  0  0  0
  2  1  1  0
  3  4  1  0
  4  2  1  0
  5  3  1  0
  6  5  1  0
  7  6  1  0
  8  3  1  0
  8  7  1  0
  8  9  1  0
 10  9  1  0
 11 10  2  0
 12 10  1  0
 13 12  1  0
 14 13  2  0
 15 13  1  0
 16 15  2  0
 16  9  1  0
 17  1  2  0
 18  1  1  0
 19  1  1  0
  2 20  1  0
  2 21  1  0
  3 22  1  6
  5 23  1  0
  5 24  1  0
  6 25  1  0
  6 26  1  0
  7 27  1  0
  7 28  1  0
  8 29  1  1
 12 30  1  0
 15 31  1  0
 16 32  1  0
 18 33  1  0
 19 34  1  0
M  END
