
     RDKit          3D

 14 15  0  0  0  0  0  0  0  0999 V2000
    1.8202   35.8437   14.6391 C   0  0  0  0  0  0  0  0  0  0  0  0
    2.3365   35.0959   16.9195 C   0  0  0  0  0  0  0  0  0  0  0  0
    2.6696   35.8485   15.7698 C   0  0  0  0  0  0  0  0  0  0  0  0
    0.6313   35.0927   14.6448 C   0  0  0  0  0  0  0  0  0  0  0  0
    1.1479   34.3616   16.8777 C   0  0  0  0  0  0  0  0  0  0  0  0
    0.3376   34.3634   15.7885 C   0  0  0  0  0  0  0  0  0  0  0  0
   -0.5425   33.1175   17.2852 N   0  0  0  0  0  0  0  0  0  0  0  0
    0.5890   33.5757   17.8165 N   0  0  0  0  0  0  0  0  0  0  0  0
   -0.7160   33.5813   16.0555 N   0  0  0  0  0  0  0  0  0  0  0  0
    4.1383   36.8011   15.7155 Cl  0  0  0  0  0  0  0  0  0  0  0  0
   -0.4406   35.0699   13.2643 Cl  0  0  0  0  0  0  0  0  0  0  0  0
    2.0837   36.4232   13.7633 H   0  0  0  0  0  0  0  0  0  0  0  0
    2.9721   35.0873   17.7954 H   0  0  0  0  0  0  0  0  0  0  0  0
   -1.5301   33.3636   15.4393 H   0  0  0  0  0  0  0  0  0  0  0  0
  3  1  2  0
  3  2  1  0
  4  1  1  0
  5  2  2  0
  6  4  2  0
  6  5  1  0
  8  7  2  0
  8  5  1  0
  9  6  1  0
  9  7  1  0
 10  3  1  0
 11  4  1  0
  1 12  1  0
  2 13  1  0
  9 14  1  0
M  END
