
     RDKit          3D

 24 23  0  0  0  0  0  0  0  0999 V2000
   10.3052   25.9243   44.7784 C   0  0  0  0  0  0  0  0  0  0  0  0
   11.7097   25.8067   42.8179 O   0  0  0  0  0  0  0  0  0  0  0  0
   11.5697   25.4031   44.1597 C   0  0  2  0  0  0  0  0  0  0  0  0
   10.1834   25.9427   46.0319 O   0  0  0  0  0  0  0  0  0  0  0  0
   11.6457   23.8604   44.2468 C   0  0  1  0  0  0  0  0  0  0  0  0
    9.2618   26.3533   43.9805 O   0  0  0  0  0  0  0  0  0  0  0  0
   10.5514   23.2312   43.4017 C   0  0  0  0  0  0  0  0  0  0  0  0
   10.0663   22.1079   43.7019 O   0  0  0  0  0  0  0  0  0  0  0  0
   13.0593   23.3496   43.8227 C   0  0  0  0  0  0  0  0  0  0  0  0
   10.1202   23.8690   42.2509 O   0  0  0  0  0  0  0  0  0  0  0  0
   13.2231   21.8535   44.1263 C   0  0  0  0  0  0  0  0  0  0  0  0
   14.2042   24.1363   44.4899 C   0  0  0  0  0  0  0  0  0  0  0  0
   11.9140   26.7784   42.8301 H   0  0  0  0  0  0  0  0  0  0  0  0
   12.3879   25.8507   44.7659 H   0  0  0  0  0  0  0  0  0  0  0  0
   11.4767   23.5667   45.3076 H   0  0  0  0  0  0  0  0  0  0  0  0
    8.7243   27.1764   44.2249 H   0  0  0  0  0  0  0  0  0  0  0  0
   13.1824   23.4808   42.7243 H   0  0  0  0  0  0  0  0  0  0  0  0
    9.4083   23.4545   41.6614 H   0  0  0  0  0  0  0  0  0  0  0  0
   14.2176   21.6556   44.5809 H   0  0  0  0  0  0  0  0  0  0  0  0
   12.4353   21.5042   44.8259 H   0  0  0  0  0  0  0  0  0  0  0  0
   13.1306   21.2566   43.1938 H   0  0  0  0  0  0  0  0  0  0  0  0
   14.7175   24.7933   43.7570 H   0  0  0  0  0  0  0  0  0  0  0  0
   14.9798   23.4410   44.8767 H   0  0  0  0  0  0  0  0  0  0  0  0
   13.8227   24.7403   45.3411 H   0  0  0  0  0  0  0  0  0  0  0  0
  3  1  1  0
  3  2  1  0
  4  1  2  0
  5  3  1  0
  6  1  1  0
  5  7  1  0
  8  7  2  0
  9  5  1  0
 10  7  1  0
  9 11  1  0
 12  9  1  0
  2 13  1  0
  3 14  1  1
  5 15  1  1
  6 16  1  0
  9 17  1  0
 10 18  1  0
 11 19  1  0
 11 20  1  0
 11 21  1  0
 12 22  1  0
 12 23  1  0
 12 24  1  0
M  END
