
     RDKit          3D

 16 15  0  0  0  0  0  0  0  0999 V2000
    5.7623   36.5180   11.7945 C   0  0  0  0  0  0  0  0  0  0  0  0
    5.1188   35.8448   12.6411 O   0  0  0  0  0  0  0  0  0  0  0  0
    7.2146   36.3938   11.6872 C   0  0  0  0  0  0  0  0  0  0  0  0
    5.0929   37.3838   10.9494 O   0  0  0  0  0  0  0  0  0  0  0  0
    7.9602   35.4273   12.5628 C   0  0  0  0  0  0  0  0  0  0  0  0
    9.5843   33.1897    9.9558 O   0  0  0  0  0  0  0  0  0  0  0  0
    9.1185   34.7556   11.8169 C   0  0  0  0  0  0  0  0  0  0  0  0
    7.4501   33.9387   10.2905 O   0  0  0  0  0  0  0  0  0  0  0  0
    8.6562   33.9412   10.6523 C   0  0  0  0  0  0  0  0  0  0  0  0
    7.8289   37.1265   10.8663 O   0  0  0  0  0  0  0  0  0  0  0  0
    5.2642   38.3817   10.9846 H   0  0  0  0  0  0  0  0  0  0  0  0
    8.3554   35.9759   13.4454 H   0  0  0  0  0  0  0  0  0  0  0  0
    7.2481   34.6490   12.9152 H   0  0  0  0  0  0  0  0  0  0  0  0
    9.9817   33.5280    9.0875 H   0  0  0  0  0  0  0  0  0  0  0  0
    9.8189   35.5320   11.4393 H   0  0  0  0  0  0  0  0  0  0  0  0
    9.6721   34.0884   12.5129 H   0  0  0  0  0  0  0  0  0  0  0  0
  2  1  2  0
  3  1  1  0
  4  1  1  0
  5  3  1  0
  7  5  1  0
  9  8  2  0
  9  7  1  0
  9  6  1  0
 10  3  2  0
  4 11  1  0
  5 12  1  0
  5 13  1  0
  6 14  1  0
  7 15  1  0
  7 16  1  0
M  END
