
     RDKit          3D

 56 60  0  0  0  0  0  0  0  0999 V2000
   14.1554    7.5546   26.2294 Cl  0  0  0  0  0  0  0  0  0  0  0  0
    7.9551    0.4980   15.9283 C   0  0  0  0  0  0  0  0  0  0  0  0
    6.8300    0.6897   16.8450 N   0  0  0  0  0  0  0  0  0  0  0  0
    5.8779   10.7024   23.7412 O   0  0  0  0  0  0  0  0  0  0  0  0
    6.1288    9.2755   24.1120 S   0  0  0  0  0  0  0  0  0  0  0  0
    5.5412    5.1711   21.3264 N   0  0  0  0  0  0  0  0  0  0  0  0
    5.3633    8.9152   25.3512 O   0  0  0  0  0  0  0  0  0  0  0  0
    5.5642    8.3437   22.7863 N   0  0  0  0  0  0  0  0  0  0  0  0
    7.1999    6.7657   20.8630 O   0  0  0  0  0  0  0  0  0  0  0  0
    5.5522    4.1395   17.7459 C   0  0  0  0  0  0  0  0  0  0  0  0
    5.3851    4.8978   18.9004 C   0  0  0  0  0  0  0  0  0  0  0  0
    5.6927    4.3637   20.1547 C   0  0  0  0  0  0  0  0  0  0  0  0
    6.1630    3.0448   20.2447 C   0  0  0  0  0  0  0  0  0  0  0  0
    6.3282    2.2787   19.0845 C   0  0  0  0  0  0  0  0  0  0  0  0
    6.0152    2.8170   17.8229 C   0  0  0  0  0  0  0  0  0  0  0  0
    4.6550    4.8730   22.4414 C   0  0  0  0  0  0  0  0  0  0  0  0
    4.6306    6.1444   23.2917 C   0  0  0  0  0  0  0  0  0  0  0  0
    5.8986    6.9281   22.9157 C   0  0  1  0  0  0  0  0  0  0  0  0
    7.8431    9.0404   24.3780 C   0  0  0  0  0  0  0  0  0  0  0  0
    8.7511    9.6300   23.4948 C   0  0  0  0  0  0  0  0  0  0  0  0
   10.1196    9.4602   23.6803 C   0  0  0  0  0  0  0  0  0  0  0  0
   10.5930    8.6975   24.7568 C   0  0  0  0  0  0  0  0  0  0  0  0
   11.9668    8.5213   24.9463 C   0  0  0  0  0  0  0  0  0  0  0  0
   12.4334    7.7653   26.0213 C   0  0  0  0  0  0  0  0  0  0  0  0
   11.5366    7.1775   26.9188 C   0  0  0  0  0  0  0  0  0  0  0  0
   10.1616    7.3427   26.7402 C   0  0  0  0  0  0  0  0  0  0  0  0
    9.6790    8.1000   25.6588 C   0  0  0  0  0  0  0  0  0  0  0  0
    8.3026    8.2740   25.4582 C   0  0  0  0  0  0  0  0  0  0  0  0
    6.2877    6.3272   21.6139 C   0  0  0  0  0  0  0  0  0  0  0  0
    6.2207    1.9964   16.5581 C   0  0  1  0  0  0  0  0  0  0  0  0
    7.0801    2.7132   15.5129 C   0  0  0  0  0  0  0  0  0  0  0  0
    7.9774    1.6443   14.9314 C   0  0  0  0  0  0  0  0  0  0  0  0
    4.9038    6.1559   18.7909 F   0  0  0  0  0  0  0  0  0  0  0  0
    7.8424   -0.4734   15.4010 H   0  0  0  0  0  0  0  0  0  0  0  0
    8.9153    0.4802   16.4931 H   0  0  0  0  0  0  0  0  0  0  0  0
    7.1855    0.6334   17.8290 H   0  0  0  0  0  0  0  0  0  0  0  0
    5.9538    8.7629   21.9094 H   0  0  0  0  0  0  0  0  0  0  0  0
    5.3289    4.5886   16.7860 H   0  0  0  0  0  0  0  0  0  0  0  0
    6.4173    2.6191   21.2071 H   0  0  0  0  0  0  0  0  0  0  0  0
    6.7025    1.2665   19.1721 H   0  0  0  0  0  0  0  0  0  0  0  0
    3.6378    4.6143   22.0756 H   0  0  0  0  0  0  0  0  0  0  0  0
    5.0675    4.0399   23.0480 H   0  0  0  0  0  0  0  0  0  0  0  0
    3.7143    6.7262   23.0435 H   0  0  0  0  0  0  0  0  0  0  0  0
    4.6172    5.9023   24.3768 H   0  0  0  0  0  0  0  0  0  0  0  0
    6.6967    6.7306   23.6666 H   0  0  0  0  0  0  0  0  0  0  0  0
    8.3978   10.2179   22.6569 H   0  0  0  0  0  0  0  0  0  0  0  0
   10.8087    9.9222   22.9832 H   0  0  0  0  0  0  0  0  0  0  0  0
   12.6773    8.9698   24.2614 H   0  0  0  0  0  0  0  0  0  0  0  0
   11.9040    6.5913   27.7514 H   0  0  0  0  0  0  0  0  0  0  0  0
    9.4765    6.8802   27.4406 H   0  0  0  0  0  0  0  0  0  0  0  0
    7.5944    7.8153   26.1377 H   0  0  0  0  0  0  0  0  0  0  0  0
    5.2318    1.7961   16.0886 H   0  0  0  0  0  0  0  0  0  0  0  0
    6.4465    3.1728   14.7225 H   0  0  0  0  0  0  0  0  0  0  0  0
    7.7086    3.5146   15.9569 H   0  0  0  0  0  0  0  0  0  0  0  0
    9.0105    2.0239   14.7721 H   0  0  0  0  0  0  0  0  0  0  0  0
    7.5637    1.2998   13.9578 H   0  0  0  0  0  0  0  0  0  0  0  0
  3  2  1  0
  5  4  2  0
  7  5  2  0
  5  8  1  0
 11 10  2  0
 12 11  1  0
 12  6  1  0
 13 12  2  0
 14 13  1  0
 15 14  2  0
 15 10  1  0
 16  6  1  0
 17 16  1  0
 18 17  1  0
 18  8  1  0
 19  5  1  0
 20 19  2  0
 21 20  1  0
 22 21  2  0
 23 22  1  0
 24 23  2  0
 24  1  1  0
 25 24  1  0
 26 25  2  0
 27 26  1  0
 27 22  1  0
 28 27  2  0
 28 19  1  0
 29  6  1  0
 29 18  1  0
 29  9  2  0
 30 15  1  0
 30  3  1  0
 31 30  1  0
 32 31  1  0
 32  2  1  0
 33 11  1  0
  2 34  1  0
  2 35  1  0
  3 36  1  0
  8 37  1  0
 10 38  1  0
 13 39  1  0
 14 40  1  0
 16 41  1  0
 16 42  1  0
 17 43  1  0
 17 44  1  0
 18 45  1  1
 20 46  1  0
 21 47  1  0
 23 48  1  0
 25 49  1  0
 26 50  1  0
 28 51  1  0
 30 52  1  6
 31 53  1  0
 31 54  1  0
 32 55  1  0
 32 56  1  0
M  END
