
     RDKit          3D

 29 29  0  0  0  0  0  0  0  0999 V2000
    0.4085    1.2500    8.5739 P   0  0  0  0  0  0  0  0  0  0  0  0
    0.0185    1.8604    7.2497 O   0  0  0  0  0  0  0  0  0  0  0  0
   -0.2562    2.1480    9.8293 O   0  0  0  0  0  0  0  0  0  0  0  0
    2.0909    1.2270    8.7148 O   0  0  0  0  0  0  0  0  0  0  0  0
   -0.2223   -0.3180    8.6588 O   0  0  0  0  0  0  0  0  0  0  0  0
   -0.7036   -4.6313    7.3280 N   0  0  0  0  0  0  0  0  0  0  0  0
   -1.7778   -4.5258    6.5094 C   0  0  0  0  0  0  0  0  0  0  0  0
   -2.5023   -5.7602    6.0730 C   0  0  0  0  0  0  0  0  0  0  0  0
   -2.1783   -3.2745    6.0422 C   0  0  0  0  0  0  0  0  0  0  0  0
   -3.2474   -3.2203    5.1539 O   0  0  0  0  0  0  0  0  0  0  0  0
   -1.4941   -2.1166    6.4645 C   0  0  0  0  0  0  0  0  0  0  0  0
   -1.9438   -0.7346    6.0194 C   0  0  0  0  0  0  0  0  0  0  0  0
   -3.1443   -0.7882    5.2980 O   0  0  0  0  0  0  0  0  0  0  0  0
   -0.9405   -0.1226    5.2540 O   0  0  0  0  0  0  0  0  0  0  0  0
   -0.3623   -2.2672    7.2963 C   0  0  0  0  0  0  0  0  0  0  0  0
    0.4583   -1.0919    7.7048 C   0  0  0  0  0  0  0  0  0  0  0  0
    0.0037   -3.5474    7.7259 C   0  0  0  0  0  0  0  0  0  0  0  0
   -0.8125    2.8343    9.3816 H   0  0  0  0  0  0  0  0  0  0  0  0
    2.3617    2.1781    8.6602 H   0  0  0  0  0  0  0  0  0  0  0  0
   -3.4440   -5.4842    5.5531 H   0  0  0  0  0  0  0  0  0  0  0  0
   -2.7576   -6.3921    6.9502 H   0  0  0  0  0  0  0  0  0  0  0  0
   -1.8602   -6.3505    5.3859 H   0  0  0  0  0  0  0  0  0  0  0  0
   -3.2435   -2.6291    4.3320 H   0  0  0  0  0  0  0  0  0  0  0  0
   -2.1331   -0.1054    6.9123 H   0  0  0  0  0  0  0  0  0  0  0  0
   -3.4049    0.1511    5.1086 H   0  0  0  0  0  0  0  0  0  0  0  0
   -0.8660   -0.6375    4.4081 H   0  0  0  0  0  0  0  0  0  0  0  0
    1.4227   -1.4334    8.1439 H   0  0  0  0  0  0  0  0  0  0  0  0
    0.7194   -0.5399    6.7718 H   0  0  0  0  0  0  0  0  0  0  0  0
    0.8591   -3.6901    8.3738 H   0  0  0  0  0  0  0  0  0  0  0  0
  2  1  2  0
  3  1  1  0
  4  1  1  0
  5  1  1  0
  7  6  2  0
  8  7  1  0
  9  7  1  0
 10  9  1  0
 11  9  2  0
 12 11  1  0
 12 13  1  0
 14 12  1  0
 15 11  1  0
 16 15  1  0
 16  5  1  0
 17 15  2  0
 17  6  1  0
  3 18  1  0
  4 19  1  0
  8 20  1  0
  8 21  1  0
  8 22  1  0
 10 23  1  0
 12 24  1  0
 13 25  1  0
 14 26  1  0
 16 27  1  0
 16 28  1  0
 17 29  1  0
M  END
