
     RDKit          3D

 29 29  0  0  0  0  0  0  0  0999 V2000
    0.2925    1.5280    8.1476 P   0  0  0  0  0  0  0  0  0  0  0  0
    1.0445    1.3896    6.8462 O   0  0  0  0  0  0  0  0  0  0  0  0
   -0.6050    2.9488    8.1349 O   0  0  0  0  0  0  0  0  0  0  0  0
    1.3850    1.5522    9.4347 O   0  0  0  0  0  0  0  0  0  0  0  0
   -0.7824    0.2295    8.2972 O   0  0  0  0  0  0  0  0  0  0  0  0
   -1.0493   -4.5188    8.1902 N   0  0  0  0  0  0  0  0  0  0  0  0
   -2.1511   -4.4698    7.4037 C   0  0  0  0  0  0  0  0  0  0  0  0
   -2.8416   -5.7388    7.0138 C   0  0  0  0  0  0  0  0  0  0  0  0
   -2.6126   -3.2439    6.9254 C   0  0  0  0  0  0  0  0  0  0  0  0
   -3.7095   -3.2474    6.0701 O   0  0  0  0  0  0  0  0  0  0  0  0
   -1.9599   -2.0531    7.3040 C   0  0  0  0  0  0  0  0  0  0  0  0
   -2.4746   -0.6981    6.8469 C   0  0  0  0  0  0  0  0  0  0  0  0
   -3.0729   -0.7715    5.5815 O   0  0  0  0  0  0  0  0  0  0  0  0
   -1.4310    0.2389    6.8405 O   0  0  0  0  0  0  0  0  0  0  0  0
   -0.7984   -2.1449    8.1027 C   0  0  0  0  0  0  0  0  0  0  0  0
   -0.0105   -0.9320    8.4630 C   0  0  0  0  0  0  0  0  0  0  0  0
   -0.3715   -3.4016    8.5450 C   0  0  0  0  0  0  0  0  0  0  0  0
   -1.1111    2.9351    8.9861 H   0  0  0  0  0  0  0  0  0  0  0  0
    0.8187    1.6103   10.2451 H   0  0  0  0  0  0  0  0  0  0  0  0
   -2.2349   -6.6138    7.3295 H   0  0  0  0  0  0  0  0  0  0  0  0
   -2.9780   -5.7850    5.9124 H   0  0  0  0  0  0  0  0  0  0  0  0
   -3.8402   -5.7878    7.4970 H   0  0  0  0  0  0  0  0  0  0  0  0
   -4.0990   -2.3981    5.6801 H   0  0  0  0  0  0  0  0  0  0  0  0
   -3.2547   -0.3455    7.5513 H   0  0  0  0  0  0  0  0  0  0  0  0
   -2.5611   -0.1610    4.9887 H   0  0  0  0  0  0  0  0  0  0  0  0
   -0.7996   -0.0348    6.1245 H   0  0  0  0  0  0  0  0  0  0  0  0
    0.3204   -0.9926    9.5242 H   0  0  0  0  0  0  0  0  0  0  0  0
    0.9180   -0.9544    7.8458 H   0  0  0  0  0  0  0  0  0  0  0  0
    0.5081   -3.4995    9.1685 H   0  0  0  0  0  0  0  0  0  0  0  0
  2  1  2  0
  3  1  1  0
  4  1  1  0
  5  1  1  0
  7  6  2  0
  8  7  1  0
  9  7  1  0
 10  9  1  0
 11  9  2  0
 12 11  1  0
 12 13  1  0
 14 12  1  0
 15 11  1  0
 16 15  1  0
 16  5  1  0
 17 15  2  0
 17  6  1  0
  3 18  1  0
  4 19  1  0
  8 20  1  0
  8 21  1  0
  8 22  1  0
 10 23  1  0
 12 24  1  0
 13 25  1  0
 14 26  1  0
 16 27  1  0
 16 28  1  0
 17 29  1  0
M  END
