
     RDKit          3D

 31 32  0  0  0  0  0  0  0  0999 V2000
   21.9938   11.9926   75.6219 C   0  0  0  0  0  0  0  0  0  0  0  0
   22.9637   12.9534   75.3603 C   0  0  0  0  0  0  0  0  0  0  0  0
   21.7516   12.8578   77.8612 C   0  0  0  0  0  0  0  0  0  0  0  0
   26.6077   16.6008   77.0371 C   0  0  0  0  0  0  0  0  0  0  0  0
   27.1701   15.6377   78.0844 C   0  0  0  0  0  0  0  0  0  0  0  0
   26.5232   15.9055   75.6788 C   0  0  0  0  0  0  0  0  0  0  0  0
   26.3324   13.7068   76.8750 C   0  0  0  0  0  0  0  0  0  0  0  0
   23.1660   14.6856   78.7233 C   0  0  0  0  0  0  0  0  0  0  0  0
   21.3756   11.9582   76.8675 C   0  0  0  0  0  0  0  0  0  0  0  0
   23.3619   13.8620   76.3583 C   0  0  0  0  0  0  0  0  0  0  0  0
   22.7545   13.8026   77.6241 C   0  0  0  0  0  0  0  0  0  0  0  0
   25.7218   14.6018   75.7765 C   0  0  1  0  0  0  0  0  0  0  0  0
   26.3755   14.4045   78.1652 N   0  0  0  0  0  0  0  0  0  0  0  0
   24.3165   14.8872   76.0647 N   0  0  0  0  0  0  0  0  0  0  0  0
   22.5063   14.6153   79.9324 O   0  0  0  0  0  0  0  0  0  0  0  0
   24.1319   15.4793   78.5863 O   0  0  0  0  0  0  0  0  0  0  0  0
   20.0003   10.6959   77.2399 Br  0  0  0  0  0  0  0  0  0  0  0  0
   21.6962   11.2991   74.8458 H   0  0  0  0  0  0  0  0  0  0  0  0
   23.3748   12.9915   74.3620 H   0  0  0  0  0  0  0  0  0  0  0  0
   21.2700   12.7997   78.8299 H   0  0  0  0  0  0  0  0  0  0  0  0
   27.2744   17.4861   76.9559 H   0  0  0  0  0  0  0  0  0  0  0  0
   25.6049   16.9585   77.3550 H   0  0  0  0  0  0  0  0  0  0  0  0
   27.1657   16.1385   79.0764 H   0  0  0  0  0  0  0  0  0  0  0  0
   28.2276   15.3892   77.8440 H   0  0  0  0  0  0  0  0  0  0  0  0
   27.5508   15.6816   75.3154 H   0  0  0  0  0  0  0  0  0  0  0  0
   26.0525   16.5887   74.9388 H   0  0  0  0  0  0  0  0  0  0  0  0
   27.3641   13.4136   76.5789 H   0  0  0  0  0  0  0  0  0  0  0  0
   25.7732   12.7594   77.0001 H   0  0  0  0  0  0  0  0  0  0  0  0
   25.7992   14.0863   74.7953 H   0  0  0  0  0  0  0  0  0  0  0  0
   25.4016   14.6405   78.4688 H   0  0  0  0  0  0  0  0  0  0  0  0
   23.9611   15.8516   75.8768 H   0  0  0  0  0  0  0  0  0  0  0  0
  2  1  2  0
  5  4  1  0
  6  4  1  0
  9  1  1  0
  9  3  2  0
 10  2  1  0
 11 10  2  0
 11  8  1  0
 11  3  1  0
 12  7  1  0
 12  6  1  0
 13  7  1  0
 13  5  1  0
 12 14  1  0
 14 10  1  0
 15  8  1  0
 16  8  2  0
 17  9  1  0
  1 18  1  0
  2 19  1  0
  3 20  1  0
  4 21  1  0
  4 22  1  0
  5 23  1  0
  5 24  1  0
  6 25  1  0
  6 26  1  0
  7 27  1  0
  7 28  1  0
 12 29  1  6
 13 30  1  0
 14 31  1  0
M  CHG  1  15  -1
M  END
