
     RDKit          3D

 12 11  0  0  0  0  0  0  0  0999 V2000
   37.0552   63.1887    2.0456 C   0  0  0  0  0  0  0  0  0  0  0  0
   33.5350   62.0105    3.4621 O   0  0  0  0  0  0  0  0  0  0  0  0
   35.5441   63.3138    2.2153 C   0  0  0  0  0  0  0  0  0  0  0  0
   35.8653   60.9534    3.7297 O   0  0  0  0  0  0  0  0  0  0  0  0
   34.5269   60.9005    1.5161 O   0  0  0  0  0  0  0  0  0  0  0  0
   34.8139   61.7588    2.7157 S   0  0  0  0  0  0  0  0  0  0  0  0
   37.4413   64.0127    1.4095 H   0  0  0  0  0  0  0  0  0  0  0  0
   37.2946   62.2216    1.5555 H   0  0  0  0  0  0  0  0  0  0  0  0
   37.5575   63.2204    3.0355 H   0  0  0  0  0  0  0  0  0  0  0  0
   35.0888   63.6338    1.2543 H   0  0  0  0  0  0  0  0  0  0  0  0
   35.3225   64.0820    2.9860 H   0  0  0  0  0  0  0  0  0  0  0  0
   36.2962   61.6600    4.2741 H   0  0  0  0  0  0  0  0  0  0  0  0
  3  1  1  0
  6  2  2  0
  6  5  2  0
  6  4  1  0
  6  3  1  0
  1  7  1  0
  1  8  1  0
  1  9  1  0
  3 10  1  0
  3 11  1  0
  4 12  1  0
M  END
