
     RDKit          3D

 29 30  0  0  0  0  0  0  0  0999 V2000
   49.1382   61.3091   98.0144 C   0  0  0  0  0  0  0  0  0  0  0  0
   48.5563   60.8437   99.2033 O   0  0  0  0  0  0  0  0  0  0  0  0
   50.2128   62.3847   98.2790 C   0  0  1  0  0  0  0  0  0  0  0  0
   49.6428   63.6731   98.2452 O   0  0  0  0  0  0  0  0  0  0  0  0
   50.9553   62.2110   99.6033 C   0  0  1  0  0  0  0  0  0  0  0  0
   52.3036   62.5577   99.4026 O   0  0  0  0  0  0  0  0  0  0  0  0
   50.2854   63.2231  100.5039 C   0  0  0  0  0  0  0  0  0  0  0  0
   49.8445   64.2807   99.5028 C   0  0  2  0  0  0  0  0  0  0  0  0
   48.6123   64.9765   99.9058 N   0  0  0  0  0  0  0  0  0  0  0  0
   48.4917   66.3312   99.7588 C   0  0  0  0  0  0  0  0  0  0  0  0
   49.4716   67.0342   99.3942 O   0  0  0  0  0  0  0  0  0  0  0  0
   47.3063   66.9367   99.9994 N   0  0  0  0  0  0  0  0  0  0  0  0
   46.2264   66.2289  100.3957 C   0  0  0  0  0  0  0  0  0  0  0  0
   44.9961   66.8970  100.6120 N   0  0  0  0  0  0  0  0  0  0  0  0
   46.3236   64.8607  100.5741 C   0  0  0  0  0  0  0  0  0  0  0  0
   47.5375   64.2492  100.3296 C   0  0  0  0  0  0  0  0  0  0  0  0
   48.3530   61.7312   97.3478 H   0  0  0  0  0  0  0  0  0  0  0  0
   49.6156   60.4533   97.4864 H   0  0  0  0  0  0  0  0  0  0  0  0
   47.5973   60.6903   98.9995 H   0  0  0  0  0  0  0  0  0  0  0  0
   50.9387   62.3174   97.4375 H   0  0  0  0  0  0  0  0  0  0  0  0
   50.8726   61.1745  100.0064 H   0  0  0  0  0  0  0  0  0  0  0  0
   52.8223   62.0970  100.1129 H   0  0  0  0  0  0  0  0  0  0  0  0
   49.4072   62.7613  101.0061 H   0  0  0  0  0  0  0  0  0  0  0  0
   50.9769   63.6390  101.2691 H   0  0  0  0  0  0  0  0  0  0  0  0
   50.6826   65.0024   99.3739 H   0  0  0  0  0  0  0  0  0  0  0  0
   44.8282   67.4479  101.4834 H   0  0  0  0  0  0  0  0  0  0  0  0
   44.2368   66.8466   99.8969 H   0  0  0  0  0  0  0  0  0  0  0  0
   45.4697   64.2749  100.8908 H   0  0  0  0  0  0  0  0  0  0  0  0
   47.6026   63.1779  100.4492 H   0  0  0  0  0  0  0  0  0  0  0  0
  2  1  1  0
  3  1  1  0
  4  3  1  0
  5  3  1  0
  5  6  1  0
  7  5  1  0
  8  4  1  0
  8  7  1  0
  8  9  1  0
 10  9  1  0
 11 10  2  0
 12 10  1  0
 13 12  2  0
 14 13  1  0
 15 13  1  0
 16 15  2  0
 16  9  1  0
  1 17  1  0
  1 18  1  0
  2 19  1  0
  3 20  1  6
  5 21  1  1
  6 22  1  0
  7 23  1  0
  7 24  1  0
  8 25  1  6
 14 26  1  0
 14 27  1  0
 15 28  1  0
 16 29  1  0
M  END
