
     RDKit          3D

 29 30  0  0  0  0  0  0  0  0999 V2000
   47.7598   62.4580   97.7866 C   0  0  0  0  0  0  0  0  0  0  0  0
   47.1778   61.9926   98.9755 O   0  0  0  0  0  0  0  0  0  0  0  0
   48.8344   63.5335   98.0512 C   0  0  1  0  0  0  0  0  0  0  0  0
   48.2340   64.7882   98.2776 O   0  0  0  0  0  0  0  0  0  0  0  0
   49.7605   63.2137   99.2239 C   0  0  1  0  0  0  0  0  0  0  0  0
   51.0581   63.6433   98.8920 O   0  0  0  0  0  0  0  0  0  0  0  0
   49.2001   64.0631  100.3412 C   0  0  0  0  0  0  0  0  0  0  0  0
   48.5964   65.2269   99.5690 C   0  0  2  0  0  0  0  0  0  0  0  0
   47.4169   65.8065  100.2306 N   0  0  0  0  0  0  0  0  0  0  0  0
   46.1564   65.3720   99.9241 C   0  0  0  0  0  0  0  0  0  0  0  0
   45.9618   64.5579   98.9825 O   0  0  0  0  0  0  0  0  0  0  0  0
   45.0953   65.8107  100.6389 N   0  0  0  0  0  0  0  0  0  0  0  0
   45.2498   66.6861  101.6557 C   0  0  0  0  0  0  0  0  0  0  0  0
   44.1161   67.1008  102.3969 N   0  0  0  0  0  0  0  0  0  0  0  0
   46.5095   67.1601  101.9749 C   0  0  0  0  0  0  0  0  0  0  0  0
   47.5883   66.7105  101.2392 C   0  0  0  0  0  0  0  0  0  0  0  0
   46.9746   62.8800   97.1200 H   0  0  0  0  0  0  0  0  0  0  0  0
   48.2372   61.6021   97.2586 H   0  0  0  0  0  0  0  0  0  0  0  0
   47.7966   61.3051   99.3349 H   0  0  0  0  0  0  0  0  0  0  0  0
   49.4355   63.6135   97.1175 H   0  0  0  0  0  0  0  0  0  0  0  0
   49.7609   62.1292   99.4841 H   0  0  0  0  0  0  0  0  0  0  0  0
   51.1027   64.6087   99.1194 H   0  0  0  0  0  0  0  0  0  0  0  0
   48.4132   63.4990  100.8883 H   0  0  0  0  0  0  0  0  0  0  0  0
   49.9823   64.4007  101.0558 H   0  0  0  0  0  0  0  0  0  0  0  0
   49.3900   65.9955   99.4301 H   0  0  0  0  0  0  0  0  0  0  0  0
   44.0391   66.9029  103.4196 H   0  0  0  0  0  0  0  0  0  0  0  0
   43.3380   67.6139  101.9258 H   0  0  0  0  0  0  0  0  0  0  0  0
   46.6550   67.8620  102.7866 H   0  0  0  0  0  0  0  0  0  0  0  0
   48.5722   67.0667  101.5061 H   0  0  0  0  0  0  0  0  0  0  0  0
  2  1  1  0
  3  1  1  0
  4  3  1  0
  5  3  1  0
  5  6  1  0
  7  5  1  0
  8  4  1  0
  8  7  1  0
  8  9  1  0
 10  9  1  0
 11 10  2  0
 12 10  1  0
 13 12  2  0
 14 13  1  0
 15 13  1  0
 16 15  2  0
 16  9  1  0
  1 17  1  0
  1 18  1  0
  2 19  1  0
  3 20  1  6
  5 21  1  1
  6 22  1  0
  7 23  1  0
  7 24  1  0
  8 25  1  6
 14 26  1  0
 14 27  1  0
 15 28  1  0
 16 29  1  0
M  END
