
     RDKit          3D

 29 30  0  0  0  0  0  0  0  0999 V2000
   35.3375   96.0265   96.3275 C   0  0  0  0  0  0  0  0  0  0  0  0
   34.5400   96.0311   95.1754 O   0  0  0  0  0  0  0  0  0  0  0  0
   36.8246   95.9030   95.9612 C   0  0  1  0  0  0  0  0  0  0  0  0
   37.1225   94.5687   95.6257 O   0  0  0  0  0  0  0  0  0  0  0  0
   37.2422   96.8140   94.8048 C   0  0  1  0  0  0  0  0  0  0  0  0
   38.4658   97.4196   95.1335 O   0  0  0  0  0  0  0  0  0  0  0  0
   37.4096   95.8581   93.6401 C   0  0  0  0  0  0  0  0  0  0  0  0
   37.7034   94.5474   94.3465 C   0  0  2  0  0  0  0  0  0  0  0  0
   37.2230   93.3632   93.6109 N   0  0  0  0  0  0  0  0  0  0  0  0
   38.0781   92.6929   92.7852 C   0  0  0  0  0  0  0  0  0  0  0  0
   39.2339   93.1410   92.5583 O   0  0  0  0  0  0  0  0  0  0  0  0
   37.6998   91.5296   92.2087 N   0  0  0  0  0  0  0  0  0  0  0  0
   36.4775   91.0022   92.4253 C   0  0  0  0  0  0  0  0  0  0  0  0
   36.1338   89.7708   91.8104 N   0  0  0  0  0  0  0  0  0  0  0  0
   35.5768   91.6677   93.2410 C   0  0  0  0  0  0  0  0  0  0  0  0
   35.9702   92.8628   93.8278 C   0  0  0  0  0  0  0  0  0  0  0  0
   35.0448   95.1832   96.9927 H   0  0  0  0  0  0  0  0  0  0  0  0
   35.1828   96.9795   96.8816 H   0  0  0  0  0  0  0  0  0  0  0  0
   33.6632   96.4069   95.4488 H   0  0  0  0  0  0  0  0  0  0  0  0
   37.4057   96.1594   96.8757 H   0  0  0  0  0  0  0  0  0  0  0  0
   36.4804   97.5972   94.5801 H   0  0  0  0  0  0  0  0  0  0  0  0
   38.2804   98.0461   95.8811 H   0  0  0  0  0  0  0  0  0  0  0  0
   36.4565   95.7894   93.0710 H   0  0  0  0  0  0  0  0  0  0  0  0
   38.2339   96.1548   92.9552 H   0  0  0  0  0  0  0  0  0  0  0  0
   38.8034   94.4970   94.5135 H   0  0  0  0  0  0  0  0  0  0  0  0
   35.9169   88.9257   92.3847 H   0  0  0  0  0  0  0  0  0  0  0  0
   36.0935   89.6943   90.7697 H   0  0  0  0  0  0  0  0  0  0  0  0
   34.5884   91.2664   93.4268 H   0  0  0  0  0  0  0  0  0  0  0  0
   35.2758   93.3770   94.4801 H   0  0  0  0  0  0  0  0  0  0  0  0
  2  1  1  0
  3  1  1  0
  4  3  1  0
  5  3  1  0
  5  6  1  0
  7  5  1  0
  8  7  1  0
  8  4  1  0
  8  9  1  0
 10  9  1  0
 11 10  2  0
 12 10  1  0
 13 12  2  0
 14 13  1  0
 15 13  1  0
 16 15  2  0
 16  9  1  0
  1 17  1  0
  1 18  1  0
  2 19  1  0
  3 20  1  1
  5 21  1  6
  6 22  1  0
  7 23  1  0
  7 24  1  0
  8 25  1  1
 14 26  1  0
 14 27  1  0
 15 28  1  0
 16 29  1  0
M  END
