
     RDKit          3D

 73 75  0  0  0  0  0  0  0  0999 V2000
  -59.4839   77.6303   61.5298 C   0  0  0  0  0  0  0  0  0  0  0  0
  -58.4654   77.6544   62.6856 C   0  0  2  0  0  0  0  0  0  0  0  0
  -58.7830   76.5223   63.6817 C   0  0  0  0  0  0  0  0  0  0  0  0
  -57.7667   78.7832   59.6267 C   0  0  0  0  0  0  0  0  0  0  0  0
  -59.3646   79.0567   60.3956 S   0  0  0  0  0  0  0  0  0  0  0  0
  -57.2711   79.8198   58.8377 C   0  0  0  0  0  0  0  0  0  0  0  0
  -56.0528   79.6882   58.1839 C   0  0  0  0  0  0  0  0  0  0  0  0
  -55.3257   78.4863   58.2730 C   0  0  0  0  0  0  0  0  0  0  0  0
  -55.8307   77.4446   59.0591 C   0  0  0  0  0  0  0  0  0  0  0  0
  -57.0452   77.5828   59.7185 C   0  0  0  0  0  0  0  0  0  0  0  0
  -54.0087   78.2802   57.5667 C   0  0  0  0  0  0  0  0  0  0  0  0
  -53.7112   79.3418   56.5432 C   0  0  0  0  0  0  0  0  0  0  0  0
  -53.5747   79.0009   55.1898 C   0  0  0  0  0  0  0  0  0  0  0  0
  -57.4004   79.6608   63.8163 C   0  0  0  0  0  0  0  0  0  0  0  0
  -58.5508   78.9364   63.3832 N   0  0  0  0  0  0  0  0  0  0  0  0
  -56.2411   79.2011   63.6335 O   0  0  0  0  0  0  0  0  0  0  0  0
  -57.5702   81.0259   64.4053 C   0  0  0  0  0  0  0  0  0  0  0  0
  -57.8762   82.0559   63.3212 C   0  0  0  0  0  0  0  0  0  0  0  0
  -56.8417   81.9968   62.1937 C   0  0  0  0  0  0  0  0  0  0  0  0
  -57.0692   83.1196   61.1963 C   0  0  0  0  0  0  0  0  0  0  0  0
  -56.2133   82.9194   59.9462 C   0  0  0  0  0  0  0  0  0  0  0  0
  -56.5525   83.9682   58.8720 C   0  0  0  0  0  0  0  0  0  0  0  0
  -57.4917   83.4473   57.8134 C   0  0  0  0  0  0  0  0  0  0  0  0
  -58.7396   75.1228   63.0456 C   0  0  0  0  0  0  0  0  0  0  0  0
  -57.0946   73.9556   61.7561 O   0  0  0  0  0  0  0  0  0  0  0  0
  -57.3397   74.6789   62.7570 C   0  0  0  0  0  0  0  0  0  0  0  0
  -56.3217   75.0057   63.6353 O   0  0  0  0  0  0  0  0  0  0  0  0
  -53.2587   79.9810   54.2467 C   0  0  0  0  0  0  0  0  0  0  0  0
  -53.0613   81.3025   54.6508 C   0  0  0  0  0  0  0  0  0  0  0  0
  -53.1781   81.6463   56.0000 C   0  0  0  0  0  0  0  0  0  0  0  0
  -53.5027   80.6709   56.9451 C   0  0  0  0  0  0  0  0  0  0  0  0
  -56.9866   82.7167   56.7269 C   0  0  0  0  0  0  0  0  0  0  0  0
  -57.8418   82.2755   55.7140 C   0  0  0  0  0  0  0  0  0  0  0  0
  -59.2080   82.5546   55.7797 C   0  0  0  0  0  0  0  0  0  0  0  0
  -59.7219   83.2707   56.8627 C   0  0  0  0  0  0  0  0  0  0  0  0
  -58.8691   83.7126   57.8799 C   0  0  0  0  0  0  0  0  0  0  0  0
  -59.4802   76.6827   60.9597 H   0  0  0  0  0  0  0  0  0  0  0  0
  -60.5044   77.6913   61.9655 H   0  0  0  0  0  0  0  0  0  0  0  0
  -57.4424   77.5146   62.2815 H   0  0  0  0  0  0  0  0  0  0  0  0
  -58.0707   76.5636   64.5350 H   0  0  0  0  0  0  0  0  0  0  0  0
  -59.7906   76.6816   64.1251 H   0  0  0  0  0  0  0  0  0  0  0  0
  -57.8511   80.7240   58.7071 H   0  0  0  0  0  0  0  0  0  0  0  0
  -55.6976   80.5304   57.6071 H   0  0  0  0  0  0  0  0  0  0  0  0
  -55.2855   76.5120   59.1448 H   0  0  0  0  0  0  0  0  0  0  0  0
  -57.3903   76.7282   60.2714 H   0  0  0  0  0  0  0  0  0  0  0  0
  -53.2009   78.2377   58.3295 H   0  0  0  0  0  0  0  0  0  0  0  0
  -54.0203   77.2938   57.0533 H   0  0  0  0  0  0  0  0  0  0  0  0
  -53.7103   77.9775   54.8627 H   0  0  0  0  0  0  0  0  0  0  0  0
  -59.4945   79.2881   63.6652 H   0  0  0  0  0  0  0  0  0  0  0  0
  -56.6437   81.3191   64.9463 H   0  0  0  0  0  0  0  0  0  0  0  0
  -58.3996   81.0103   65.1445 H   0  0  0  0  0  0  0  0  0  0  0  0
  -58.8909   81.8645   62.9067 H   0  0  0  0  0  0  0  0  0  0  0  0
  -57.8756   83.0675   63.7832 H   0  0  0  0  0  0  0  0  0  0  0  0
  -56.9312   81.0252   61.6597 H   0  0  0  0  0  0  0  0  0  0  0  0
  -55.8147   82.0823   62.6129 H   0  0  0  0  0  0  0  0  0  0  0  0
  -56.8263   84.0970   61.6691 H   0  0  0  0  0  0  0  0  0  0  0  0
  -58.1409   83.1266   60.8947 H   0  0  0  0  0  0  0  0  0  0  0  0
  -56.3278   81.8950   59.5502 H   0  0  0  0  0  0  0  0  0  0  0  0
  -55.1441   83.0289   60.2333 H   0  0  0  0  0  0  0  0  0  0  0  0
  -56.9725   84.8961   59.3210 H   0  0  0  0  0  0  0  0  0  0  0  0
  -55.6090   84.2893   58.3777 H   0  0  0  0  0  0  0  0  0  0  0  0
  -59.3516   75.0812   62.1216 H   0  0  0  0  0  0  0  0  0  0  0  0
  -59.1814   74.3980   63.7620 H   0  0  0  0  0  0  0  0  0  0  0  0
  -55.3860   75.1989   63.2987 H   0  0  0  0  0  0  0  0  0  0  0  0
  -53.1586   79.7145   53.2025 H   0  0  0  0  0  0  0  0  0  0  0  0
  -52.8099   82.0599   53.9197 H   0  0  0  0  0  0  0  0  0  0  0  0
  -53.0153   82.6694   56.3131 H   0  0  0  0  0  0  0  0  0  0  0  0
  -53.5838   80.9466   57.9894 H   0  0  0  0  0  0  0  0  0  0  0  0
  -55.9285   82.4943   56.6606 H   0  0  0  0  0  0  0  0  0  0  0  0
  -57.4443   81.7160   54.8773 H   0  0  0  0  0  0  0  0  0  0  0  0
  -59.8689   82.2120   54.9941 H   0  0  0  0  0  0  0  0  0  0  0  0
  -60.7818   83.4832   56.9158 H   0  0  0  0  0  0  0  0  0  0  0  0
  -59.2797   84.2699   58.7127 H   0  0  0  0  0  0  0  0  0  0  0  0
  2  1  1  0
  3  2  1  0
  5  4  1  0
  5  1  1  0
  6  4  2  0
  7  6  1  0
  8  7  2  0
  9  8  1  0
 10  9  2  0
 10  4  1  0
 11  8  1  0
 12 11  1  0
 13 12  2  0
 15 14  1  0
 15  2  1  0
 16 14  2  0
 17 14  1  0
 18 17  1  0
 19 18  1  0
 20 19  1  0
 21 20  1  0
 22 21  1  0
 23 22  1  0
 24  3  1  0
 26 25  2  0
 26 24  1  0
 27 26  1  0
 28 13  1  0
 29 28  2  0
 30 29  1  0
 31 30  2  0
 31 12  1  0
 32 23  2  0
 33 32  1  0
 34 33  2  0
 35 34  1  0
 36 35  2  0
 36 23  1  0
  1 37  1  0
  1 38  1  0
  2 39  1  6
  3 40  1  0
  3 41  1  0
  6 42  1  0
  7 43  1  0
  9 44  1  0
 10 45  1  0
 11 46  1  0
 11 47  1  0
 13 48  1  0
 15 49  1  0
 17 50  1  0
 17 51  1  0
 18 52  1  0
 18 53  1  0
 19 54  1  0
 19 55  1  0
 20 56  1  0
 20 57  1  0
 21 58  1  0
 21 59  1  0
 22 60  1  0
 22 61  1  0
 24 62  1  0
 24 63  1  0
 27 64  1  0
 28 65  1  0
 29 66  1  0
 30 67  1  0
 31 68  1  0
 32 69  1  0
 33 70  1  0
 34 71  1  0
 35 72  1  0
 36 73  1  0
M  END
