
     RDKit          3D

 73 75  0  0  0  0  0  0  0  0999 V2000
  -36.6285   66.0930   63.3119 C   0  0  0  0  0  0  0  0  0  0  0  0
  -37.6814   66.0045   64.4336 C   0  0  2  0  0  0  0  0  0  0  0  0
  -37.3713   67.0126   65.5539 C   0  0  0  0  0  0  0  0  0  0  0  0
  -38.3576   65.3194   61.2205 C   0  0  0  0  0  0  0  0  0  0  0  0
  -36.8193   64.8180   62.0135 S   0  0  0  0  0  0  0  0  0  0  0  0
  -38.8884   64.4428   60.2748 C   0  0  0  0  0  0  0  0  0  0  0  0
  -40.0317   64.7743   59.5606 C   0  0  0  0  0  0  0  0  0  0  0  0
  -40.6501   66.0255   59.7463 C   0  0  0  0  0  0  0  0  0  0  0  0
  -40.1000   66.9191   60.6737 C   0  0  0  0  0  0  0  0  0  0  0  0
  -38.9605   66.5762   61.3971 C   0  0  0  0  0  0  0  0  0  0  0  0
  -41.8216   66.4815   58.9102 C   0  0  0  0  0  0  0  0  0  0  0  0
  -42.4268   65.3729   58.0931 C   0  0  0  0  0  0  0  0  0  0  0  0
  -41.8298   64.9775   56.8864 C   0  0  0  0  0  0  0  0  0  0  0  0
  -38.8257   64.0750   65.5722 C   0  0  0  0  0  0  0  0  0  0  0  0
  -37.6630   64.6630   65.0022 N   0  0  0  0  0  0  0  0  0  0  0  0
  -39.9252   64.6920   65.5600 O   0  0  0  0  0  0  0  0  0  0  0  0
  -38.7456   62.6842   66.1251 C   0  0  0  0  0  0  0  0  0  0  0  0
  -38.4500   61.6504   65.0312 C   0  0  0  0  0  0  0  0  0  0  0  0
  -39.3778   61.8411   63.8289 C   0  0  0  0  0  0  0  0  0  0  0  0
  -39.3302   60.6532   62.8686 C   0  0  0  0  0  0  0  0  0  0  0  0
  -39.7139   61.1132   61.4641 C   0  0  0  0  0  0  0  0  0  0  0  0
  -39.4718   60.0328   60.4027 C   0  0  0  0  0  0  0  0  0  0  0  0
  -39.4159   60.6339   59.0191 C   0  0  0  0  0  0  0  0  0  0  0  0
  -36.2256   67.9782   65.2142 C   0  0  0  0  0  0  0  0  0  0  0  0
  -35.1821   68.5455   63.1428 O   0  0  0  0  0  0  0  0  0  0  0  0
  -36.2555   68.4154   63.7863 C   0  0  0  0  0  0  0  0  0  0  0  0
  -37.4598   68.7569   63.1953 O   0  0  0  0  0  0  0  0  0  0  0  0
  -42.4348   64.0018   56.0894 C   0  0  0  0  0  0  0  0  0  0  0  0
  -43.6481   63.4305   56.4827 C   0  0  0  0  0  0  0  0  0  0  0  0
  -44.2578   63.8337   57.6745 C   0  0  0  0  0  0  0  0  0  0  0  0
  -43.6515   64.8023   58.4780 C   0  0  0  0  0  0  0  0  0  0  0  0
  -40.5936   60.8422   58.2839 C   0  0  0  0  0  0  0  0  0  0  0  0
  -40.5386   61.4382   57.0199 C   0  0  0  0  0  0  0  0  0  0  0  0
  -39.3113   61.8391   56.4863 C   0  0  0  0  0  0  0  0  0  0  0  0
  -38.1363   61.6465   57.2161 C   0  0  0  0  0  0  0  0  0  0  0  0
  -38.1871   61.0521   58.4800 C   0  0  0  0  0  0  0  0  0  0  0  0
  -35.6242   65.9257   63.7571 H   0  0  0  0  0  0  0  0  0  0  0  0
  -36.5728   67.0945   62.8461 H   0  0  0  0  0  0  0  0  0  0  0  0
  -38.6890   66.2162   64.0234 H   0  0  0  0  0  0  0  0  0  0  0  0
  -38.2870   67.5893   65.8100 H   0  0  0  0  0  0  0  0  0  0  0  0
  -37.1016   66.4570   66.4792 H   0  0  0  0  0  0  0  0  0  0  0  0
  -38.3465   63.5483   60.0073 H   0  0  0  0  0  0  0  0  0  0  0  0
  -40.3837   64.0607   58.8311 H   0  0  0  0  0  0  0  0  0  0  0  0
  -40.5393   67.8998   60.8124 H   0  0  0  0  0  0  0  0  0  0  0  0
  -38.5589   67.3311   62.0491 H   0  0  0  0  0  0  0  0  0  0  0  0
  -41.4818   67.2960   58.2340 H   0  0  0  0  0  0  0  0  0  0  0  0
  -42.5985   66.9185   59.5755 H   0  0  0  0  0  0  0  0  0  0  0  0
  -40.9014   65.4293   56.5595 H   0  0  0  0  0  0  0  0  0  0  0  0
  -36.7469   64.1717   65.1187 H   0  0  0  0  0  0  0  0  0  0  0  0
  -37.9461   62.6426   66.8953 H   0  0  0  0  0  0  0  0  0  0  0  0
  -39.7056   62.4260   66.6240 H   0  0  0  0  0  0  0  0  0  0  0  0
  -38.5897   60.6339   65.4602 H   0  0  0  0  0  0  0  0  0  0  0  0
  -37.3919   61.7432   64.7013 H   0  0  0  0  0  0  0  0  0  0  0  0
  -40.4282   61.9712   64.1725 H   0  0  0  0  0  0  0  0  0  0  0  0
  -39.0743   62.7758   63.3075 H   0  0  0  0  0  0  0  0  0  0  0  0
  -38.2948   60.2453   62.8409 H   0  0  0  0  0  0  0  0  0  0  0  0
  -40.0179   59.8507   63.2138 H   0  0  0  0  0  0  0  0  0  0  0  0
  -39.0796   61.9796   61.2333 H   0  0  0  0  0  0  0  0  0  0  0  0
  -40.7757   61.4432   61.4392 H   0  0  0  0  0  0  0  0  0  0  0  0
  -38.5239   59.4833   60.5956 H   0  0  0  0  0  0  0  0  0  0  0  0
  -40.2857   59.2770   60.4543 H   0  0  0  0  0  0  0  0  0  0  0  0
  -36.3387   68.8886   65.8407 H   0  0  0  0  0  0  0  0  0  0  0  0
  -35.2364   67.5414   65.4592 H   0  0  0  0  0  0  0  0  0  0  0  0
  -37.4955   69.0789   62.2356 H   0  0  0  0  0  0  0  0  0  0  0  0
  -41.9693   63.6966   55.1612 H   0  0  0  0  0  0  0  0  0  0  0  0
  -44.1198   62.6808   55.8608 H   0  0  0  0  0  0  0  0  0  0  0  0
  -45.2024   63.3979   57.9728 H   0  0  0  0  0  0  0  0  0  0  0  0
  -44.1420   65.1189   59.3902 H   0  0  0  0  0  0  0  0  0  0  0  0
  -41.5533   60.5500   58.6924 H   0  0  0  0  0  0  0  0  0  0  0  0
  -41.4487   61.5947   56.4564 H   0  0  0  0  0  0  0  0  0  0  0  0
  -39.2718   62.3032   55.5094 H   0  0  0  0  0  0  0  0  0  0  0  0
  -37.1867   61.9642   56.8056 H   0  0  0  0  0  0  0  0  0  0  0  0
  -37.2699   60.9224   59.0412 H   0  0  0  0  0  0  0  0  0  0  0  0
  2  1  1  0
  3  2  1  0
  5  4  1  0
  5  1  1  0
  6  4  2  0
  7  6  1  0
  8  7  2  0
  9  8  1  0
 10  4  1  0
 10  9  2  0
 11  8  1  0
 12 11  1  0
 13 12  2  0
 15 14  1  0
 15  2  1  0
 16 14  2  0
 17 14  1  0
 18 17  1  0
 19 18  1  0
 20 19  1  0
 21 20  1  0
 22 21  1  0
 23 22  1  0
 24  3  1  0
 26 25  2  0
 26 24  1  0
 27 26  1  0
 28 13  1  0
 29 28  2  0
 30 29  1  0
 31 30  2  0
 31 12  1  0
 32 23  2  0
 33 32  1  0
 34 33  2  0
 35 34  1  0
 36 23  1  0
 36 35  2  0
  1 37  1  0
  1 38  1  0
  2 39  1  6
  3 40  1  0
  3 41  1  0
  6 42  1  0
  7 43  1  0
  9 44  1  0
 10 45  1  0
 11 46  1  0
 11 47  1  0
 13 48  1  0
 15 49  1  0
 17 50  1  0
 17 51  1  0
 18 52  1  0
 18 53  1  0
 19 54  1  0
 19 55  1  0
 20 56  1  0
 20 57  1  0
 21 58  1  0
 21 59  1  0
 22 60  1  0
 22 61  1  0
 24 62  1  0
 24 63  1  0
 27 64  1  0
 28 65  1  0
 29 66  1  0
 30 67  1  0
 31 68  1  0
 32 69  1  0
 33 70  1  0
 34 71  1  0
 35 72  1  0
 36 73  1  0
M  END
