
     RDKit          3D

 14 13  0  0  0  0  0  0  0  0999 V2000
    3.8514    3.4708  -38.4681 P   0  0  0  0  0  0  0  0  0  0  0  0
    5.4893    3.8797  -38.6042 O   0  0  0  0  0  0  0  0  0  0  0  0
    3.7014    2.6252  -37.2260 O   0  0  0  0  0  0  0  0  0  0  0  0
    2.9190    4.8564  -38.3100 O   0  0  0  0  0  0  0  0  0  0  0  0
    3.3612    2.6140  -39.8291 O   0  0  0  0  0  0  0  0  0  0  0  0
    4.5784    5.5855  -39.9667 C   0  0  0  0  0  0  0  0  0  0  0  0
    4.0677    5.7167  -41.1098 O   0  0  0  0  0  0  0  0  0  0  0  0
    5.7312    4.6539  -39.7585 C   0  0  0  0  0  0  0  0  0  0  0  0
    4.1174    6.3590  -38.9131 O   0  0  0  0  0  0  0  0  0  0  0  0
    2.1554    4.5864  -37.7402 H   0  0  0  0  0  0  0  0  0  0  0  0
    2.3852    2.4915  -39.7128 H   0  0  0  0  0  0  0  0  0  0  0  0
    5.8211    3.9759  -40.6341 H   0  0  0  0  0  0  0  0  0  0  0  0
    6.6495    5.2809  -39.7029 H   0  0  0  0  0  0  0  0  0  0  0  0
    3.3543    7.0126  -39.0426 H   0  0  0  0  0  0  0  0  0  0  0  0
  2  1  1  0
  3  1  2  0
  4  1  1  0
  5  1  1  0
  7  6  2  0
  8  2  1  0
  8  6  1  0
  9  6  1  0
  4 10  1  0
  5 11  1  0
  8 12  1  0
  8 13  1  0
  9 14  1  0
M  END
