
     RDKit          3D

 14 13  0  0  0  0  0  0  0  0999 V2000
   23.0535    2.5971    6.0980 P   0  0  0  0  0  0  0  0  0  0  0  0
   23.5430    3.8223    5.0348 O   0  0  0  0  0  0  0  0  0  0  0  0
   23.7399    1.3243    5.6655 O   0  0  0  0  0  0  0  0  0  0  0  0
   23.5582    3.0469    7.6318 O   0  0  0  0  0  0  0  0  0  0  0  0
   21.3851    2.3871    6.1027 O   0  0  0  0  0  0  0  0  0  0  0  0
   22.0263    3.3414    3.2374 C   0  0  0  0  0  0  0  0  0  0  0  0
   22.1773    2.0965    3.3783 O   0  0  0  0  0  0  0  0  0  0  0  0
   22.4566    4.3111    4.2926 C   0  0  0  0  0  0  0  0  0  0  0  0
   21.4490    3.8393    2.0876 O   0  0  0  0  0  0  0  0  0  0  0  0
   23.9519    3.9483    7.5156 H   0  0  0  0  0  0  0  0  0  0  0  0
   21.2523    1.4056    6.1040 H   0  0  0  0  0  0  0  0  0  0  0  0
   21.6022    4.6074    4.9413 H   0  0  0  0  0  0  0  0  0  0  0  0
   22.7870    5.2374    3.7786 H   0  0  0  0  0  0  0  0  0  0  0  0
   20.4458    3.8022    1.9510 H   0  0  0  0  0  0  0  0  0  0  0  0
  2  1  1  0
  3  1  2  0
  4  1  1  0
  5  1  1  0
  7  6  2  0
  8  6  1  0
  8  2  1  0
  9  6  1  0
  4 10  1  0
  5 11  1  0
  8 12  1  0
  8 13  1  0
  9 14  1  0
M  END
