
     RDKit          3D

 38 39  0  0  0  0  0  0  0  0999 V2000
   23.9474   11.9838   -9.3462 Cl  0  0  0  0  0  0  0  0  0  0  0  0
   14.2602    6.6337  -12.6028 C   0  0  0  0  0  0  0  0  0  0  0  0
   13.2565    6.0481  -13.4246 N   0  0  0  0  0  0  0  0  0  0  0  0
   12.2038    5.3738  -12.8670 O   0  0  0  0  0  0  0  0  0  0  0  0
   13.3309    6.1515  -14.6649 O   0  0  0  0  0  0  0  0  0  0  0  0
   15.3209    7.3153  -13.2054 C   0  0  0  0  0  0  0  0  0  0  0  0
   16.3201    7.9056  -12.4409 C   0  0  0  0  0  0  0  0  0  0  0  0
   17.4335    8.5962  -13.1834 C   0  0  0  0  0  0  0  0  0  0  0  0
   18.3573    9.2415  -12.2749 N   0  0  0  0  0  0  0  0  0  0  0  0
   19.6487    8.7081  -11.9893 C   0  0  0  0  0  0  0  0  0  0  0  0
   20.6979    9.5929  -11.4485 C   0  0  0  0  0  0  0  0  0  0  0  0
   21.9966    9.0886  -11.3075 C   0  0  0  0  0  0  0  0  0  0  0  0
   22.9959    9.8495  -10.7116 C   0  0  0  0  0  0  0  0  0  0  0  0
   22.7118   11.1256  -10.2405 C   0  0  0  0  0  0  0  0  0  0  0  0
   21.4308   11.6599  -10.3932 C   0  0  0  0  0  0  0  0  0  0  0  0
   20.4112   10.9008  -11.0023 C   0  0  0  0  0  0  0  0  0  0  0  0
   19.1230   11.4207  -11.1839 O   0  0  0  0  0  0  0  0  0  0  0  0
   18.8370   12.7919  -11.4372 C   0  0  0  0  0  0  0  0  0  0  0  0
   19.0797   13.6095  -10.2100 C   0  0  0  0  0  0  0  0  0  0  0  0
   18.1930   14.4032   -9.7990 O   0  0  0  0  0  0  0  0  0  0  0  0
   20.2479   13.4460   -9.4855 O   0  0  0  0  0  0  0  0  0  0  0  0
   19.8535    7.4663  -12.0820 O   0  0  0  0  0  0  0  0  0  0  0  0
   16.2624    7.7933  -11.0378 C   0  0  0  0  0  0  0  0  0  0  0  0
   15.2006    7.1149  -10.4281 C   0  0  0  0  0  0  0  0  0  0  0  0
   14.1991    6.5330  -11.2061 C   0  0  0  0  0  0  0  0  0  0  0  0
   15.3768    7.3891  -14.2852 H   0  0  0  0  0  0  0  0  0  0  0  0
   17.0048    9.3783  -13.8474 H   0  0  0  0  0  0  0  0  0  0  0  0
   17.9527    7.8619  -13.8360 H   0  0  0  0  0  0  0  0  0  0  0  0
   17.9523    9.9825  -11.6656 H   0  0  0  0  0  0  0  0  0  0  0  0
   22.2358    8.0832  -11.6323 H   0  0  0  0  0  0  0  0  0  0  0  0
   23.9851    9.4280  -10.5835 H   0  0  0  0  0  0  0  0  0  0  0  0
   21.2452   12.6518  -10.0096 H   0  0  0  0  0  0  0  0  0  0  0  0
   19.4094   13.1742  -12.3077 H   0  0  0  0  0  0  0  0  0  0  0  0
   17.7609   12.8772  -11.6944 H   0  0  0  0  0  0  0  0  0  0  0  0
   20.2213   13.2222   -8.4979 H   0  0  0  0  0  0  0  0  0  0  0  0
   17.0341    8.2205  -10.4112 H   0  0  0  0  0  0  0  0  0  0  0  0
   15.1602    7.0351   -9.3494 H   0  0  0  0  0  0  0  0  0  0  0  0
   13.3870    6.0090  -10.7188 H   0  0  0  0  0  0  0  0  0  0  0  0
  3  2  1  0
  4  3  1  0
  5  3  2  0
  6  2  2  0
  7  6  1  0
  8  7  1  0
  9  8  1  0
 10  9  1  0
 11 10  1  0
 12 11  2  0
 13 12  1  0
 14 13  2  0
 14  1  1  0
 15 14  1  0
 16 11  1  0
 16 15  2  0
 17 16  1  0
 18 17  1  0
 19 18  1  0
 20 19  2  0
 21 19  1  0
 22 10  2  0
 23  7  2  0
 24 23  1  0
 25  2  1  0
 25 24  2  0
  6 26  1  0
  8 27  1  0
  8 28  1  0
  9 29  1  0
 12 30  1  0
 13 31  1  0
 15 32  1  0
 18 33  1  0
 18 34  1  0
 21 35  1  0
 23 36  1  0
 24 37  1  0
 25 38  1  0
M  CHG  2   3   1   4  -1
M  END
