
     RDKit          3D

 41 43  0  0  0  0  0  0  0  0999 V2000
   64.9063   82.5801  -13.9489 N   0  0  0  0  0  0  0  0  0  0  0  0
   63.7043   83.3069  -12.0411 N   0  0  0  0  0  0  0  0  0  0  0  0
   68.4952   79.8858  -12.9200 N   0  0  0  0  0  0  0  0  0  0  0  0
   66.2988   81.6849  -15.6713 N   0  0  0  0  0  0  0  0  0  0  0  0
   61.2503   80.4467   -6.3301 N   0  0  0  0  0  0  0  0  0  0  0  0
   66.2466   80.8077  -13.3441 C   0  0  0  0  0  0  0  0  0  0  0  0
   65.8227   81.6790  -14.3381 C   0  0  0  0  0  0  0  0  0  0  0  0
   64.5962   82.4229  -12.6613 C   0  0  0  0  0  0  0  0  0  0  0  0
   62.9026   83.0179  -10.9118 C   0  0  0  0  0  0  0  0  0  0  0  0
   67.1889   79.7173  -13.4661 C   0  0  0  0  0  0  0  0  0  0  0  0
   62.5433   81.6833  -10.7337 C   0  0  0  0  0  0  0  0  0  0  0  0
   61.8297   81.3006   -9.6105 C   0  0  0  0  0  0  0  0  0  0  0  0
   61.4802   82.2563   -8.6447 C   0  0  0  0  0  0  0  0  0  0  0  0
   61.7746   83.6029   -8.8468 C   0  0  0  0  0  0  0  0  0  0  0  0
   62.5239   83.9830   -9.9508 C   0  0  0  0  0  0  0  0  0  0  0  0
   69.5100   78.8930  -12.9282 C   0  0  0  0  0  0  0  0  0  0  0  0
   69.8804   78.3200  -11.7047 C   0  0  0  0  0  0  0  0  0  0  0  0
   70.9007   77.3721  -11.6562 C   0  0  0  0  0  0  0  0  0  0  0  0
   71.5555   76.9904  -12.8318 C   0  0  0  0  0  0  0  0  0  0  0  0
   71.1955   77.5656  -14.0559 C   0  0  0  0  0  0  0  0  0  0  0  0
   70.1872   78.5282  -14.1062 C   0  0  0  0  0  0  0  0  0  0  0  0
   66.8470   78.6386  -14.0113 O   0  0  0  0  0  0  0  0  0  0  0  0
   61.2398   82.5585   -6.3614 O   0  0  0  0  0  0  0  0  0  0  0  0
   59.4818   82.6261   -6.7779 O   0  0  0  0  0  0  0  0  0  0  0  0
   65.4663   81.2001  -11.9135 S   0  0  0  0  0  0  0  0  0  0  0  0
   60.6076   81.7756   -7.2159 S   0  0  0  0  0  0  0  0  0  0  0  0
   71.8336   77.2011  -15.1929 F   0  0  0  0  0  0  0  0  0  0  0  0
   63.5559   84.2199  -12.5306 H   0  0  0  0  0  0  0  0  0  0  0  0
   68.7088   80.7456  -12.3682 H   0  0  0  0  0  0  0  0  0  0  0  0
   67.2680   81.4185  -15.9391 H   0  0  0  0  0  0  0  0  0  0  0  0
   65.7028   82.0994  -16.4219 H   0  0  0  0  0  0  0  0  0  0  0  0
   60.5854   80.2443   -5.5486 H   0  0  0  0  0  0  0  0  0  0  0  0
   61.2110   79.6146   -6.9597 H   0  0  0  0  0  0  0  0  0  0  0  0
   62.8256   80.9285  -11.4577 H   0  0  0  0  0  0  0  0  0  0  0  0
   61.5706   80.2582   -9.4733 H   0  0  0  0  0  0  0  0  0  0  0  0
   61.5036   84.3462   -8.1085 H   0  0  0  0  0  0  0  0  0  0  0  0
   62.8660   84.9995   -9.9648 H   0  0  0  0  0  0  0  0  0  0  0  0
   69.3791   78.6047  -10.7877 H   0  0  0  0  0  0  0  0  0  0  0  0
   71.1837   76.9284  -10.7103 H   0  0  0  0  0  0  0  0  0  0  0  0
   72.3440   76.2500  -12.7931 H   0  0  0  0  0  0  0  0  0  0  0  0
   69.9799   79.0064  -15.0523 H   0  0  0  0  0  0  0  0  0  0  0  0
  7  1  1  0
  7  6  2  0
  7  4  1  0
  8  2  1  0
  8  1  2  0
  9  2  1  0
 10  6  1  0
 10  3  1  0
 11  9  2  0
 12 11  1  0
 13 12  2  0
 14 13  1  0
 15 14  2  0
 15  9  1  0
 16  3  1  0
 17 16  2  0
 18 17  1  0
 19 18  2  0
 20 19  1  0
 21 16  1  0
 21 20  2  0
 22 10  2  0
 25  8  1  0
 25  6  1  0
 26 23  2  0
 26 24  2  0
 26  5  1  0
 26 13  1  0
 27 20  1  0
  2 28  1  0
  3 29  1  0
  4 30  1  0
  4 31  1  0
  5 32  1  0
  5 33  1  0
 11 34  1  0
 12 35  1  0
 14 36  1  0
 15 37  1  0
 17 38  1  0
 18 39  1  0
 19 40  1  0
 21 41  1  0
M  END
