
     RDKit          3D

 44 45  0  0  0  0  0  0  0  0999 V2000
   -9.5666   -8.0334   43.0459 P   0  0  1  0  0  0  0  0  0  0  0  0
   -9.4612  -10.8957   42.5104 P   0  0  1  0  0  0  0  0  0  0  0  0
   -9.6335  -11.8617   45.1527 P   0  0  0  0  0  0  0  0  0  0  0  0
   -8.1623   -8.2330   45.2133 C   0  0  0  0  0  0  0  0  0  0  0  0
   -8.3720   -7.4477   44.0767 O   0  0  0  0  0  0  0  0  0  0  0  0
   -6.9396   -7.6492   45.9335 C   0  0  1  0  0  0  0  0  0  0  0  0
   -5.7800   -7.8721   45.1572 O   0  0  0  0  0  0  0  0  0  0  0  0
   -7.0490   -6.1356   46.1558 C   0  0  1  0  0  0  0  0  0  0  0  0
   -7.7465   -5.7932   47.3236 O   0  0  0  0  0  0  0  0  0  0  0  0
   -5.6095   -5.7150   46.2031 C   0  0  0  0  0  0  0  0  0  0  0  0
   -4.9292   -6.7486   45.3143 C   0  0  2  0  0  0  0  0  0  0  0  0
   -4.6202   -6.1419   44.0030 N   0  0  0  0  0  0  0  0  0  0  0  0
  -10.8134   -8.4221   43.8037 O   0  0  0  0  0  0  0  0  0  0  0  0
  -10.9710  -10.9814   42.5873 O   0  0  0  0  0  0  0  0  0  0  0  0
   -8.8558  -11.7148   46.4373 O   0  0  0  0  0  0  0  0  0  0  0  0
   -3.3952   -5.5726   43.7679 C   0  0  0  0  0  0  0  0  0  0  0  0
   -2.4919   -5.6115   44.6475 O   0  0  0  0  0  0  0  0  0  0  0  0
   -9.8980   -6.7495   42.0130 O   0  0  0  0  0  0  0  0  0  0  0  0
   -8.8783  -11.9457   41.3358 O   0  0  0  0  0  0  0  0  0  0  0  0
   -9.9532  -13.4848   44.8898 O   0  0  0  0  0  0  0  0  0  0  0  0
   -3.1454   -4.9515   42.5800 N   0  0  0  0  0  0  0  0  0  0  0  0
   -8.9340   -9.3050   42.0278 N   0  0  0  0  0  0  0  0  0  0  0  0
   -8.6330  -11.2623   43.9350 O   0  0  0  0  0  0  0  0  0  0  0  0
  -11.0765  -11.0169   45.2944 O   0  0  0  0  0  0  0  0  0  0  0  0
   -4.1060   -4.8577   41.6202 C   0  0  0  0  0  0  0  0  0  0  0  0
   -3.8628   -4.2746   40.5325 O   0  0  0  0  0  0  0  0  0  0  0  0
   -5.3593   -5.4046   41.8403 C   0  0  0  0  0  0  0  0  0  0  0  0
   -5.5939   -6.0421   43.0472 C   0  0  0  0  0  0  0  0  0  0  0  0
   -7.9197   -9.2722   44.9420 H   0  0  0  0  0  0  0  0  0  0  0  0
   -9.0495   -8.1974   45.8831 H   0  0  0  0  0  0  0  0  0  0  0  0
   -6.8137   -8.1796   46.9043 H   0  0  0  0  0  0  0  0  0  0  0  0
   -7.5283   -5.6128   45.3010 H   0  0  0  0  0  0  0  0  0  0  0  0
   -8.5810   -6.3303   47.3572 H   0  0  0  0  0  0  0  0  0  0  0  0
   -5.2062   -5.7925   47.2375 H   0  0  0  0  0  0  0  0  0  0  0  0
   -5.4755   -4.6712   45.8413 H   0  0  0  0  0  0  0  0  0  0  0  0
   -3.9991   -7.1051   45.8099 H   0  0  0  0  0  0  0  0  0  0  0  0
   -9.8780   -7.1427   41.1039 H   0  0  0  0  0  0  0  0  0  0  0  0
   -9.1045  -12.8498   41.6714 H   0  0  0  0  0  0  0  0  0  0  0  0
   -9.0689  -13.8903   44.7037 H   0  0  0  0  0  0  0  0  0  0  0  0
   -2.2045   -4.5284   42.4080 H   0  0  0  0  0  0  0  0  0  0  0  0
   -7.8928   -9.2818   42.1094 H   0  0  0  0  0  0  0  0  0  0  0  0
  -11.7814  -11.7116   45.2589 H   0  0  0  0  0  0  0  0  0  0  0  0
   -6.1396   -5.3375   41.0916 H   0  0  0  0  0  0  0  0  0  0  0  0
   -6.5628   -6.4501   43.1968 H   0  0  0  0  0  0  0  0  0  0  0  0
  1  5  1  1
  5  4  1  0
  6  4  1  0
  7  6  1  0
  8  6  1  0
  8  9  1  0
 10  8  1  0
 11 10  1  0
 11  7  1  0
 11 12  1  0
 13  1  2  0
 14  2  2  0
 15  3  2  0
 16 12  1  0
 17 16  2  0
 18  1  1  0
  2 19  1  6
 20  3  1  0
 21 16  1  0
 22  2  1  0
 22  1  1  0
 23  2  1  0
 23  3  1  0
 24  3  1  0
 25 21  1  0
 26 25  2  0
 27 25  1  0
 28 27  2  0
 28 12  1  0
  4 29  1  0
  4 30  1  0
  6 31  1  1
  8 32  1  6
  9 33  1  0
 10 34  1  0
 10 35  1  0
 11 36  1  1
 18 37  1  0
 19 38  1  0
 20 39  1  0
 21 40  1  0
 22 41  1  0
 24 42  1  0
 27 43  1  0
 28 44  1  0
M  END
