
     RDKit          3D

 35 36  0  0  0  0  0  0  0  0999 V2000
   -4.6200  -10.0917   29.2773 P   0  0  0  0  0  0  0  0  0  0  0  0
   -3.4485  -10.9718   28.9153 O   0  0  0  0  0  0  0  0  0  0  0  0
   -5.4325  -10.7276   30.5968 O   0  0  0  0  0  0  0  0  0  0  0  0
   -5.6998   -9.9740   27.9967 O   0  0  0  0  0  0  0  0  0  0  0  0
   -3.6497   -7.7844   28.7421 C   0  0  0  0  0  0  0  0  0  0  0  0
   -4.0761   -8.5889   29.8028 O   0  0  0  0  0  0  0  0  0  0  0  0
   -4.4863   -6.5011   28.8555 C   0  0  1  0  0  0  0  0  0  0  0  0
   -4.0307   -5.5218   27.9394 O   0  0  0  0  0  0  0  0  0  0  0  0
   -5.9785   -6.7822   28.6171 C   0  0  1  0  0  0  0  0  0  0  0  0
   -6.7507   -5.9818   29.4825 O   0  0  0  0  0  0  0  0  0  0  0  0
   -6.1311   -6.3489   27.1785 C   0  0  1  0  0  0  0  0  0  0  0  0
   -7.4402   -5.9459   26.8596 O   0  0  0  0  0  0  0  0  0  0  0  0
   -5.0915   -5.2280   27.0600 C   0  0  2  0  0  0  0  0  0  0  0  0
   -4.5664   -5.0495   25.6884 N   0  0  0  0  0  0  0  0  0  0  0  0
   -3.8160   -6.0168   25.0589 C   0  0  0  0  0  0  0  0  0  0  0  0
   -3.6079   -7.1311   25.6127 O   0  0  0  0  0  0  0  0  0  0  0  0
   -3.2791   -5.7842   23.8279 N   0  0  0  0  0  0  0  0  0  0  0  0
   -3.4498   -4.5942   23.1997 C   0  0  0  0  0  0  0  0  0  0  0  0
   -2.9211   -4.4033   22.0707 O   0  0  0  0  0  0  0  0  0  0  0  0
   -4.2077   -3.5949   23.8200 C   0  0  0  0  0  0  0  0  0  0  0  0
   -4.7604   -3.8502   25.0699 C   0  0  0  0  0  0  0  0  0  0  0  0
   -4.4389   -2.3067   23.2296 C   0  0  0  0  0  0  0  0  0  0  0  0
   -4.6476   -1.2649   22.7747 N   0  0  0  0  0  0  0  0  0  0  0  0
   -5.4213  -10.0058   31.2751 H   0  0  0  0  0  0  0  0  0  0  0  0
   -5.9784  -10.9056   27.8079 H   0  0  0  0  0  0  0  0  0  0  0  0
   -2.5700   -7.5333   28.8441 H   0  0  0  0  0  0  0  0  0  0  0  0
   -3.8438   -8.2880   27.7725 H   0  0  0  0  0  0  0  0  0  0  0  0
   -4.3441   -6.0954   29.8830 H   0  0  0  0  0  0  0  0  0  0  0  0
   -6.2461   -7.8590   28.7390 H   0  0  0  0  0  0  0  0  0  0  0  0
   -7.5036   -6.5463   29.7989 H   0  0  0  0  0  0  0  0  0  0  0  0
   -5.8709   -7.2061   26.5238 H   0  0  0  0  0  0  0  0  0  0  0  0
   -7.6343   -5.0905   27.3233 H   0  0  0  0  0  0  0  0  0  0  0  0
   -5.5472   -4.2800   27.4286 H   0  0  0  0  0  0  0  0  0  0  0  0
   -2.7125   -6.5319   23.3651 H   0  0  0  0  0  0  0  0  0  0  0  0
   -5.3415   -3.0718   25.5542 H   0  0  0  0  0  0  0  0  0  0  0  0
  2  1  2  0
  3  1  1  0
  4  1  1  0
  6  5  1  0
  6  1  1  0
  7  5  1  0
  8  7  1  0
  9  7  1  0
  9 10  1  0
 11  9  1  0
 11 12  1  0
 13 11  1  0
 13  8  1  0
 13 14  1  0
 15 14  1  0
 16 15  2  0
 17 15  1  0
 18 17  1  0
 19 18  2  0
 20 18  1  0
 21 20  2  0
 21 14  1  0
 22 20  1  0
 23 22  3  0
  3 24  1  0
  4 25  1  0
  5 26  1  0
  5 27  1  0
  7 28  1  1
  9 29  1  6
 10 30  1  0
 11 31  1  6
 12 32  1  0
 13 33  1  1
 17 34  1  0
 21 35  1  0
M  END
