
     RDKit          3D

 80 87  0  0  0  0  0  0  0  0999 V2000
   30.1287   97.4117   49.7287 C   0  0  0  0  0  0  0  0  0  0  0  0
   24.7947   88.3780   52.1652 C   0  0  0  0  0  0  0  0  0  0  0  0
   27.0526   93.9377   46.9728 C   0  0  0  0  0  0  0  0  0  0  0  0
   29.2385   94.5454   51.9456 N   0  0  0  0  0  0  0  0  0  0  0  0
   29.3701   91.8718   57.6895 O   0  0  0  0  0  0  0  0  0  0  0  0
   29.2171   98.6123   49.9999 C   0  0  0  0  0  0  0  0  0  0  0  0
   24.0071   87.3800   53.0012 C   0  0  0  0  0  0  0  0  0  0  0  0
   26.1211   95.1608   46.8650 C   0  0  0  0  0  0  0  0  0  0  0  0
   28.9894   92.8860   54.3376 N   0  0  0  0  0  0  0  0  0  0  0  0
   29.3190   99.6438   48.9186 C   0  0  0  0  0  0  0  0  0  0  0  0
   25.2591   95.3881   48.0888 C   0  0  0  0  0  0  0  0  0  0  0  0
   27.4532   92.7684   50.5122 N   0  0  0  0  0  0  0  0  0  0  0  0
   28.4496   94.7533   49.5848 C   0  0  0  0  0  0  0  0  0  0  0  0
   30.3656   94.9376   54.1366 C   0  0  0  0  0  0  0  0  0  0  0  0
   27.8548   90.9001   55.2290 C   0  0  0  0  0  0  0  0  0  0  0  0
   26.1136   90.7801   50.6963 C   0  0  0  0  0  0  0  0  0  0  0  0
   31.7121   93.1122   56.3490 C   0  0  0  0  0  0  0  0  0  0  0  0
   31.3832   97.5121   52.6591 C   0  0  0  0  0  0  0  0  0  0  0  0
   30.0086   94.8447   57.1830 C   0  0  0  0  0  0  0  0  0  0  0  0
   25.9559   88.4144   55.2322 C   0  0  0  0  0  0  0  0  0  0  0  0
   25.4326   91.2933   47.7397 C   0  0  0  0  0  0  0  0  0  0  0  0
   28.5397   95.2930   57.1952 C   0  0  0  0  0  0  0  0  0  0  0  0
   29.1984   95.2090   50.7693 C   0  0  0  0  0  0  0  0  0  0  0  0
   29.8897   93.8838   54.8340 C   0  0  0  0  0  0  0  0  0  0  0  0
   27.1671   90.5064   54.1437 C   0  0  0  0  0  0  0  0  0  0  0  0
   26.6031   91.8346   50.0065 C   0  0  0  0  0  0  0  0  0  0  0  0
   30.4174  100.2127   48.6881 O   0  0  0  0  0  0  0  0  0  0  0  0
   24.4487   96.3518   48.0995 O   0  0  0  0  0  0  0  0  0  0  0  0
   29.9658   96.3757   50.8182 C   0  0  0  0  0  0  0  0  0  0  0  0
   30.2670   93.6157   56.2702 C   0  0  1  0  0  0  0  0  0  0  0  0
   26.2540   89.3585   54.0930 C   0  0  0  0  0  0  0  0  0  0  0  0
   26.2985   92.1129   48.6675 C   0  0  0  0  0  0  0  0  0  0  0  0
   28.2001  100.0022   48.1853 O   0  0  0  0  0  0  0  0  0  0  0  0
   25.3272   94.5750   49.2125 O   0  0  0  0  0  0  0  0  0  0  0  0
   30.4799   96.4403   52.0988 C   0  0  0  0  0  0  0  0  0  0  0  0
   29.4016   92.4587   56.5653 C   0  0  0  0  0  0  0  0  0  0  0  0
   25.7511   89.3427   52.8471 C   0  0  0  0  0  0  0  0  0  0  0  0
   26.9956   93.2659   48.3381 C   0  0  0  0  0  0  0  0  0  0  0  0
   30.0276   95.2917   52.7502 C   0  0  0  0  0  0  0  0  0  0  0  0
   28.7239   92.0744   55.3227 C   0  0  0  0  0  0  0  0  0  0  0  0
   26.3778   90.4703   52.1206 C   0  0  0  0  0  0  0  0  0  0  0  0
   27.6772   93.6496   49.4993 C   0  0  0  0  0  0  0  0  0  0  0  0
   27.1915   91.1503   52.8717 N   0  0  0  0  0  0  0  0  0  0  0  0
   28.3115   92.7809   52.4320 Fe  0  0  2  0  0  4  0  0  0  0  0  0
   29.8902   96.9665   48.7402 H   0  0  0  0  0  0  0  0  0  0  0  0
   31.1875   97.7422   49.6757 H   0  0  0  0  0  0  0  0  0  0  0  0
   25.3722   87.8068   51.4070 H   0  0  0  0  0  0  0  0  0  0  0  0
   24.0436   88.9839   51.6149 H   0  0  0  0  0  0  0  0  0  0  0  0
   28.1012   94.2466   46.7763 H   0  0  0  0  0  0  0  0  0  0  0  0
   26.7892   93.2000   46.1871 H   0  0  0  0  0  0  0  0  0  0  0  0
   28.1650   98.2641   50.0880 H   0  0  0  0  0  0  0  0  0  0  0  0
   29.5001   99.0831   50.9663 H   0  0  0  0  0  0  0  0  0  0  0  0
   23.4196   87.9066   53.7812 H   0  0  0  0  0  0  0  0  0  0  0  0
   23.2947   86.8351   52.3460 H   0  0  0  0  0  0  0  0  0  0  0  0
   24.6817   86.6286   53.4571 H   0  0  0  0  0  0  0  0  0  0  0  0
   25.4532   95.0395   45.9855 H   0  0  0  0  0  0  0  0  0  0  0  0
   26.7407   96.0682   46.6981 H   0  0  0  0  0  0  0  0  0  0  0  0
   28.5247   95.3830   48.7119 H   0  0  0  0  0  0  0  0  0  0  0  0
   31.0678   95.5879   54.6387 H   0  0  0  0  0  0  0  0  0  0  0  0
   27.7631   90.3422   56.1457 H   0  0  0  0  0  0  0  0  0  0  0  0
   25.4688   90.0910   50.1721 H   0  0  0  0  0  0  0  0  0  0  0  0
   31.9677   92.8196   57.3907 H   0  0  0  0  0  0  0  0  0  0  0  0
   32.4144   93.9155   56.0394 H   0  0  0  0  0  0  0  0  0  0  0  0
   31.8755   92.2355   55.6830 H   0  0  0  0  0  0  0  0  0  0  0  0
   31.2756   98.4604   52.0949 H   0  0  0  0  0  0  0  0  0  0  0  0
   31.1159   97.7259   53.7143 H   0  0  0  0  0  0  0  0  0  0  0  0
   32.4380   97.1717   52.6072 H   0  0  0  0  0  0  0  0  0  0  0  0
   30.3007   94.5876   58.2247 H   0  0  0  0  0  0  0  0  0  0  0  0
   30.6452   95.7005   56.8733 H   0  0  0  0  0  0  0  0  0  0  0  0
   24.8634   88.3765   55.4142 H   0  0  0  0  0  0  0  0  0  0  0  0
   26.3376   87.4036   54.9852 H   0  0  0  0  0  0  0  0  0  0  0  0
   26.4322   88.7058   56.1835 H   0  0  0  0  0  0  0  0  0  0  0  0
   24.5337   90.9233   48.2736 H   0  0  0  0  0  0  0  0  0  0  0  0
   26.0149   90.4318   47.3525 H   0  0  0  0  0  0  0  0  0  0  0  0
   25.0689   91.9038   46.8889 H   0  0  0  0  0  0  0  0  0  0  0  0
   28.4633   96.3999   57.1671 H   0  0  0  0  0  0  0  0  0  0  0  0
   28.0555   94.9368   58.1286 H   0  0  0  0  0  0  0  0  0  0  0  0
   27.9890   94.8633   56.3323 H   0  0  0  0  0  0  0  0  0  0  0  0
   27.4857   99.3262   47.9420 H   0  0  0  0  0  0  0  0  0  0  0  0
   26.1773   94.3908   49.7269 H   0  0  0  0  0  0  0  0  0  0  0  0
  6  1  1  0
  7  2  1  0
  8  3  1  0
 10  6  1  0
 11  8  1  0
 22 19  1  0
 23 13  1  0
 23  4  1  0
 24  9  1  0
 24 14  2  0
 25 15  2  0
 26 16  2  0
 26 12  1  0
 27 10  2  0
 28 11  2  0
 29 23  2  0
 29  1  1  0
 30 17  1  6
 30 24  1  0
 30 19  1  0
 31 25  1  0
 31 20  1  0
 32 21  1  0
 32 26  1  0
 33 10  1  0
 34 11  1  0
 35 29  1  0
 35 18  1  0
 36 30  1  0
 36  5  2  0
 37 31  2  0
 37  2  1  0
 38 32  2  0
 38  3  1  0
 39 35  2  0
 39 14  1  0
 39  4  1  0
 40  9  2  0
 40 36  1  0
 40 15  1  0
 41 37  1  0
 41 16  1  0
 42 38  1  0
 42 12  1  0
 42 13  2  0
 43 41  2  0
 43 25  1  0
 44 43  1  0
 44 12  1  0
 44  9  1  0
 44  4  1  0
  1 45  1  0
  1 46  1  0
  2 47  1  0
  2 48  1  0
  3 49  1  0
  3 50  1  0
  6 51  1  0
  6 52  1  0
  7 53  1  0
  7 54  1  0
  7 55  1  0
  8 56  1  0
  8 57  1  0
 13 58  1  0
 14 59  1  0
 15 60  1  0
 16 61  1  0
 17 62  1  0
 17 63  1  0
 17 64  1  0
 18 65  1  0
 18 66  1  0
 18 67  1  0
 19 68  1  0
 19 69  1  0
 20 70  1  0
 20 71  1  0
 20 72  1  0
 21 73  1  0
 21 74  1  0
 21 75  1  0
 22 76  1  0
 22 77  1  0
 22 78  1  0
 33 79  1  0
 34 80  1  0
M  CHG  2   9   1  43   1
M  END
