
     RDKit          3D

 80 87  0  0  0  0  0  0  0  0999 V2000
   28.9270   95.5175   49.3562 C   0  0  0  0  0  0  0  0  0  0  0  0
   23.3677   86.9910   52.8762 C   0  0  0  0  0  0  0  0  0  0  0  0
   25.1972   92.2514   47.2237 C   0  0  0  0  0  0  0  0  0  0  0  0
   28.1808   92.7747   51.7735 N   0  0  0  0  0  0  0  0  0  0  0  0
   29.0121   90.2082   57.5076 O   0  0  0  0  0  0  0  0  0  0  0  0
   27.8695   96.6086   49.5487 C   0  0  0  0  0  0  0  0  0  0  0  0
   22.6478   86.0758   53.8556 C   0  0  0  0  0  0  0  0  0  0  0  0
   24.3569   93.5435   47.2242 C   0  0  0  0  0  0  0  0  0  0  0  0
   28.1860   91.1863   54.2259 N   0  0  0  0  0  0  0  0  0  0  0  0
   27.8770   97.5958   48.4223 C   0  0  0  0  0  0  0  0  0  0  0  0
   24.2688   94.2212   45.8731 C   0  0  0  0  0  0  0  0  0  0  0  0
   26.0607   91.1207   50.6923 N   0  0  0  0  0  0  0  0  0  0  0  0
   27.0474   93.0009   49.5592 C   0  0  0  0  0  0  0  0  0  0  0  0
   29.6664   93.1160   53.7486 C   0  0  0  0  0  0  0  0  0  0  0  0
   27.0574   89.3155   55.3450 C   0  0  0  0  0  0  0  0  0  0  0  0
   24.6184   89.2508   51.1452 C   0  0  0  0  0  0  0  0  0  0  0  0
   31.2013   91.2301   55.7803 C   0  0  0  0  0  0  0  0  0  0  0  0
   30.6323   95.5717   52.0507 C   0  0  0  0  0  0  0  0  0  0  0  0
   29.7887   93.1098   56.8149 C   0  0  0  0  0  0  0  0  0  0  0  0
   24.9979   86.9916   55.7221 C   0  0  0  0  0  0  0  0  0  0  0  0
   23.5206   89.7613   48.3163 C   0  0  0  0  0  0  0  0  0  0  0  0
   28.3898   93.7230   56.9752 C   0  0  0  0  0  0  0  0  0  0  0  0
   28.0065   93.4170   50.5976 C   0  0  0  0  0  0  0  0  0  0  0  0
   29.2272   92.1174   54.5444 C   0  0  0  0  0  0  0  0  0  0  0  0
   26.1788   88.9582   54.3930 C   0  0  0  0  0  0  0  0  0  0  0  0
   25.0723   90.2491   50.3548 C   0  0  0  0  0  0  0  0  0  0  0  0
   27.9147   97.1953   47.2300 O   0  0  0  0  0  0  0  0  0  0  0  0
   23.6195   95.2947   45.7651 O   0  0  0  0  0  0  0  0  0  0  0  0
   28.8592   94.5187   50.4898 C   0  0  0  0  0  0  0  0  0  0  0  0
   29.8048   91.8469   55.9118 C   0  0  1  0  0  0  0  0  0  0  0  0
   25.1839   87.8869   54.5213 C   0  0  0  0  0  0  0  0  0  0  0  0
   24.5824   90.5258   49.0716 C   0  0  0  0  0  0  0  0  0  0  0  0
   27.8741   98.9559   48.6834 O   0  0  0  0  0  0  0  0  0  0  0  0
   24.8750   93.7032   44.7362 O   0  0  0  0  0  0  0  0  0  0  0  0
   29.5724   94.5658   51.6719 C   0  0  0  0  0  0  0  0  0  0  0  0
   28.9106   90.7693   56.3744 C   0  0  0  0  0  0  0  0  0  0  0  0
   24.4909   87.8881   53.3701 C   0  0  0  0  0  0  0  0  0  0  0  0
   25.3051   91.6124   48.6016 C   0  0  0  0  0  0  0  0  0  0  0  0
   29.1419   93.4700   52.4215 C   0  0  0  0  0  0  0  0  0  0  0  0
   28.0179   90.4175   55.2653 C   0  0  0  0  0  0  0  0  0  0  0  0
   25.0797   88.9476   52.5199 C   0  0  0  0  0  0  0  0  0  0  0  0
   26.1888   91.9617   49.6297 C   0  0  0  0  0  0  0  0  0  0  0  0
   26.0514   89.5738   53.1132 N   0  0  0  0  0  0  0  0  0  0  0  0
   27.2097   91.1002   52.4535 Fe  0  0  2  0  0  4  0  0  0  0  0  0
   28.7727   95.0030   48.3847 H   0  0  0  0  0  0  0  0  0  0  0  0
   29.9391   95.9721   49.3122 H   0  0  0  0  0  0  0  0  0  0  0  0
   23.7728   86.3609   52.0556 H   0  0  0  0  0  0  0  0  0  0  0  0
   22.5879   87.6451   52.4311 H   0  0  0  0  0  0  0  0  0  0  0  0
   26.2222   92.4710   46.8567 H   0  0  0  0  0  0  0  0  0  0  0  0
   24.7572   91.5227   46.5122 H   0  0  0  0  0  0  0  0  0  0  0  0
   26.8651   96.1389   49.6288 H   0  0  0  0  0  0  0  0  0  0  0  0
   28.0655   97.1529   50.4980 H   0  0  0  0  0  0  0  0  0  0  0  0
   21.8519   86.6321   54.3922 H   0  0  0  0  0  0  0  0  0  0  0  0
   22.1668   85.2459   53.2955 H   0  0  0  0  0  0  0  0  0  0  0  0
   23.3628   85.6240   54.5713 H   0  0  0  0  0  0  0  0  0  0  0  0
   24.7905   94.2652   47.9490 H   0  0  0  0  0  0  0  0  0  0  0  0
   23.3269   93.2996   47.5629 H   0  0  0  0  0  0  0  0  0  0  0  0
   27.0318   93.6059   48.6660 H   0  0  0  0  0  0  0  0  0  0  0  0
   30.4868   93.7170   54.1146 H   0  0  0  0  0  0  0  0  0  0  0  0
   27.0691   88.7843   56.2818 H   0  0  0  0  0  0  0  0  0  0  0  0
   23.8481   88.6062   50.7498 H   0  0  0  0  0  0  0  0  0  0  0  0
   31.5892   90.9252   56.7764 H   0  0  0  0  0  0  0  0  0  0  0  0
   31.9085   91.9726   55.3526 H   0  0  0  0  0  0  0  0  0  0  0  0
   31.1923   90.3387   55.1138 H   0  0  0  0  0  0  0  0  0  0  0  0
   30.5100   96.5148   51.4807 H   0  0  0  0  0  0  0  0  0  0  0  0
   30.5521   95.8263   53.1274 H   0  0  0  0  0  0  0  0  0  0  0  0
   31.6365   95.1465   51.8457 H   0  0  0  0  0  0  0  0  0  0  0  0
   30.1642   92.8354   57.8249 H   0  0  0  0  0  0  0  0  0  0  0  0
   30.4788   93.8829   56.4154 H   0  0  0  0  0  0  0  0  0  0  0  0
   23.9839   87.1351   56.1456 H   0  0  0  0  0  0  0  0  0  0  0  0
   25.1406   85.9344   55.4215 H   0  0  0  0  0  0  0  0  0  0  0  0
   25.7181   87.1868   56.5344 H   0  0  0  0  0  0  0  0  0  0  0  0
   22.7296   89.4085   49.0090 H   0  0  0  0  0  0  0  0  0  0  0  0
   23.9820   88.8907   47.8059 H   0  0  0  0  0  0  0  0  0  0  0  0
   23.0218   90.4062   47.5652 H   0  0  0  0  0  0  0  0  0  0  0  0
   27.7611   93.5133   56.0848 H   0  0  0  0  0  0  0  0  0  0  0  0
   28.4823   94.8243   57.0811 H   0  0  0  0  0  0  0  0  0  0  0  0
   27.8874   93.3277   57.8828 H   0  0  0  0  0  0  0  0  0  0  0  0
   27.8449   99.3148   49.6303 H   0  0  0  0  0  0  0  0  0  0  0  0
   25.5894   92.9885   44.7516 H   0  0  0  0  0  0  0  0  0  0  0  0
  6  1  1  0
  7  2  1  0
  8  3  1  0
 10  6  1  0
 11  8  1  0
 22 19  1  0
 23 13  1  0
 23  4  1  0
 24  9  1  0
 24 14  2  0
 25 15  2  0
 26 16  2  0
 26 12  1  0
 27 10  2  0
 28 11  2  0
 29 23  2  0
 29  1  1  0
 30 17  1  6
 30 24  1  0
 30 19  1  0
 31 25  1  0
 31 20  1  0
 32 21  1  0
 32 26  1  0
 33 10  1  0
 34 11  1  0
 35 29  1  0
 35 18  1  0
 36 30  1  0
 36  5  2  0
 37 31  2  0
 37  2  1  0
 38 32  2  0
 38  3  1  0
 39 35  2  0
 39 14  1  0
 39  4  1  0
 40  9  2  0
 40 36  1  0
 40 15  1  0
 41 37  1  0
 41 16  1  0
 42 38  1  0
 42 12  1  0
 42 13  2  0
 43 41  2  0
 43 25  1  0
 44 43  1  0
 44 12  1  0
 44  9  1  0
 44  4  1  0
  1 45  1  0
  1 46  1  0
  2 47  1  0
  2 48  1  0
  3 49  1  0
  3 50  1  0
  6 51  1  0
  6 52  1  0
  7 53  1  0
  7 54  1  0
  7 55  1  0
  8 56  1  0
  8 57  1  0
 13 58  1  0
 14 59  1  0
 15 60  1  0
 16 61  1  0
 17 62  1  0
 17 63  1  0
 17 64  1  0
 18 65  1  0
 18 66  1  0
 18 67  1  0
 19 68  1  0
 19 69  1  0
 20 70  1  0
 20 71  1  0
 20 72  1  0
 21 73  1  0
 21 74  1  0
 21 75  1  0
 22 76  1  0
 22 77  1  0
 22 78  1  0
 33 79  1  0
 34 80  1  0
M  CHG  2   9   1  43   1
M  END
