
     RDKit          3D

 16 15  0  0  0  0  0  0  0  0999 V2000
   48.3630   10.0117   38.7642 N   0  0  0  0  0  0  0  0  0  0  0  0
   49.9546   10.5615   40.5630 C   0  0  0  0  0  0  0  0  0  0  0  0
   49.2971    9.4541   39.7457 C   0  0  0  0  0  0  0  0  0  0  0  0
   51.8605   12.2603   40.4586 P   0  0  0  0  0  0  0  0  0  0  0  0
   53.0057   11.4292   40.9871 O   0  0  0  0  0  0  0  0  0  0  0  0
   51.0268   12.9751   41.7249 O   0  0  0  0  0  0  0  0  0  0  0  0
   52.4251   13.4643   39.4299 O   0  0  0  0  0  0  0  0  0  0  0  0
   50.7128   11.3167   39.6611 O   0  0  0  0  0  0  0  0  0  0  0  0
   48.8858   10.6221   38.0944 H   0  0  0  0  0  0  0  0  0  0  0  0
   47.6494   10.5993   39.2530 H   0  0  0  0  0  0  0  0  0  0  0  0
   49.1677   11.1982   41.0233 H   0  0  0  0  0  0  0  0  0  0  0  0
   50.5765   10.0968   41.3624 H   0  0  0  0  0  0  0  0  0  0  0  0
   48.7549    8.7549   40.4193 H   0  0  0  0  0  0  0  0  0  0  0  0
   50.0830    8.8769   39.2128 H   0  0  0  0  0  0  0  0  0  0  0  0
   50.8003   13.8829   41.3996 H   0  0  0  0  0  0  0  0  0  0  0  0
   52.1622   13.1719   38.5212 H   0  0  0  0  0  0  0  0  0  0  0  0
  3  1  1  0
  3  2  1  0
  5  4  2  0
  6  4  1  0
  7  4  1  0
  8  2  1  0
  8  4  1  0
  1  9  1  0
  1 10  1  0
  2 11  1  0
  2 12  1  0
  3 13  1  0
  3 14  1  0
  6 15  1  0
  7 16  1  0
M  END
