
     RDKit          3D

118120  0  0  0  0  0  0  0  0999 V2000
    8.3747    5.5602   20.7544 C   0  0  0  0  0  0  0  0  0  0  0  0
   18.3893    5.6413   20.7707 N   0  0  0  0  0  0  0  0  0  0  0  0
    7.8515    5.4799   21.8998 O   0  0  0  0  0  0  0  0  0  0  0  0
    9.4203    4.5887   20.3184 C   0  0  1  0  0  0  0  0  0  0  0  0
    7.9601    6.5186   19.8439 O   0  0  0  0  0  0  0  0  0  0  0  0
   10.7310    4.7698   21.1363 C   0  0  1  0  0  0  0  0  0  0  0  0
   11.5650    3.6258   20.9931 O   0  0  0  0  0  0  0  0  0  0  0  0
   11.5236    6.0209   20.6373 C   0  0  1  0  0  0  0  0  0  0  0  0
   12.3966    3.0925   23.1141 O   0  0  0  0  0  0  0  0  0  0  0  0
   12.4970    6.5546   21.7480 C   0  0  2  0  0  0  0  0  0  0  0  0
   13.4797    1.7998   20.0200 O   0  0  0  0  0  0  0  0  0  0  0  0
   11.7963    7.6570   22.6331 C   0  0  1  0  0  0  0  0  0  0  0  0
   15.3798    1.2410   21.9812 O   0  0  0  0  0  0  0  0  0  0  0  0
   11.8814    9.0531   21.9259 C   0  0  0  0  0  0  0  0  0  0  0  0
   13.6913    7.0451   21.1350 O   0  0  0  0  0  0  0  0  0  0  0  0
   11.3218   10.2580   22.7190 C   0  0  2  0  0  0  0  0  0  0  0  0
   15.5879    5.1789   20.1686 O   0  0  0  0  0  0  0  0  0  0  0  0
    9.8135   10.2271   22.8495 C   0  0  0  0  0  0  0  0  0  0  0  0
   15.2973    7.9304   22.5357 O   0  0  0  0  0  0  0  0  0  0  0  0
    8.8981   10.3133   21.6378 C   0  0  1  0  0  0  0  0  0  0  0  0
   10.4459    7.2849   22.7904 O   0  0  0  0  0  0  0  0  0  0  0  0
    8.0661    9.0092   21.4895 C   0  0  2  0  0  0  0  0  0  0  0  0
    9.3318   10.1534   23.9717 O   0  0  0  0  0  0  0  0  0  0  0  0
    7.2686    8.8376   20.1548 C   0  0  1  0  0  0  0  0  0  0  0  0
    7.2065    8.8473   22.5988 O   0  0  0  0  0  0  0  0  0  0  0  0
    6.8154    7.3420   20.0395 C   0  0  1  0  0  0  0  0  0  0  0  0
    6.1427    9.6819   20.1476 O   0  0  0  0  0  0  0  0  0  0  0  0
   11.4678    2.7434   22.1006 C   0  0  2  0  0  0  0  0  0  0  0  0
   11.6548    1.2885   21.6403 C   0  0  0  0  0  0  0  0  0  0  0  0
   13.0996    1.0179   21.1607 C   0  0  2  0  0  0  0  0  0  0  0  0
   14.0274    1.4445   22.3237 C   0  0  2  0  0  0  0  0  0  0  0  0
   13.7407    2.9250   22.6978 C   0  0  2  0  0  0  0  0  0  0  0  0
   13.2807   -0.4971   20.9038 C   0  0  0  0  0  0  0  0  0  0  0  0
   13.0031    1.3178   18.7768 C   0  0  0  0  0  0  0  0  0  0  0  0
   14.6425    3.3903   23.8421 C   0  0  0  0  0  0  0  0  0  0  0  0
   14.8766    6.7532   21.8618 C   0  0  2  0  0  0  0  0  0  0  0  0
   15.9709    6.3366   20.8693 C   0  0  1  0  0  0  0  0  0  0  0  0
   17.2875    6.1011   21.6510 C   0  0  2  0  0  0  0  0  0  0  0  0
   17.6270    7.3328   22.5233 C   0  0  0  0  0  0  0  0  0  0  0  0
   16.4027    7.6664   23.3819 C   0  0  1  0  0  0  0  0  0  0  0  0
   16.6709    8.8964   24.2457 C   0  0  0  0  0  0  0  0  0  0  0  0
   18.7100    6.5672   19.6701 C   0  0  0  0  0  0  0  0  0  0  0  0
   19.6025    5.3394   21.5487 C   0  0  0  0  0  0  0  0  0  0  0  0
    8.8244    3.1773   20.3481 C   0  0  0  0  0  0  0  0  0  0  0  0
   12.2798    5.6880   19.3316 C   0  0  0  0  0  0  0  0  0  0  0  0
   12.4505    7.6750   24.0413 C   0  0  0  0  0  0  0  0  0  0  0  0
   11.7759   11.5829   22.0798 C   0  0  0  0  0  0  0  0  0  0  0  0
    8.0425   11.5828   21.7310 C   0  0  0  0  0  0  0  0  0  0  0  0
    8.1534    9.2129   18.9482 C   0  0  0  0  0  0  0  0  0  0  0  0
    5.8325    7.0508   18.8948 C   0  0  0  0  0  0  0  0  0  0  0  0
    6.3134    5.8570   18.0656 C   0  0  0  0  0  0  0  0  0  0  0  0
    9.6225    4.7863   19.2466 H   0  0  0  0  0  0  0  0  0  0  0  0
   10.4496    4.9414   22.2019 H   0  0  0  0  0  0  0  0  0  0  0  0
   10.8036    6.8232   20.3662 H   0  0  0  0  0  0  0  0  0  0  0  0
   12.7301    5.6708   22.3811 H   0  0  0  0  0  0  0  0  0  0  0  0
   15.7029    2.0504   21.5063 H   0  0  0  0  0  0  0  0  0  0  0  0
   12.9426    9.2817   21.7078 H   0  0  0  0  0  0  0  0  0  0  0  0
   11.3791    8.9967   20.9377 H   0  0  0  0  0  0  0  0  0  0  0  0
   11.7665   10.2519   23.7371 H   0  0  0  0  0  0  0  0  0  0  0  0
   15.6818    4.4028   20.7768 H   0  0  0  0  0  0  0  0  0  0  0  0
    9.5486   10.4277   20.7514 H   0  0  0  0  0  0  0  0  0  0  0  0
   10.0537    7.7147   23.5916 H   0  0  0  0  0  0  0  0  0  0  0  0
    8.8155    8.2005   21.4655 H   0  0  0  0  0  0  0  0  0  0  0  0
    7.5506    8.0910   23.1419 H   0  0  0  0  0  0  0  0  0  0  0  0
    6.2864    7.0759   20.9827 H   0  0  0  0  0  0  0  0  0  0  0  0
    5.5198    9.3821   20.8599 H   0  0  0  0  0  0  0  0  0  0  0  0
   10.4602    2.7695   22.5698 H   0  0  0  0  0  0  0  0  0  0  0  0
   11.4304    0.6276   22.5081 H   0  0  0  0  0  0  0  0  0  0  0  0
   10.9148    1.0150   20.8636 H   0  0  0  0  0  0  0  0  0  0  0  0
   13.8099    0.8180   23.2186 H   0  0  0  0  0  0  0  0  0  0  0  0
   13.9429    3.5838   21.8270 H   0  0  0  0  0  0  0  0  0  0  0  0
   12.3715   -0.9325   20.4357 H   0  0  0  0  0  0  0  0  0  0  0  0
   14.1262   -0.6934   20.2122 H   0  0  0  0  0  0  0  0  0  0  0  0
   13.4733   -1.0285   21.8600 H   0  0  0  0  0  0  0  0  0  0  0  0
   13.4846    1.9101   17.9724 H   0  0  0  0  0  0  0  0  0  0  0  0
   13.2784    0.2593   18.5992 H   0  0  0  0  0  0  0  0  0  0  0  0
   11.9142    1.4646   18.6621 H   0  0  0  0  0  0  0  0  0  0  0  0
   15.7072    3.3924   23.5278 H   0  0  0  0  0  0  0  0  0  0  0  0
   14.5275    2.7200   24.7204 H   0  0  0  0  0  0  0  0  0  0  0  0
   14.3635    4.4177   24.1537 H   0  0  0  0  0  0  0  0  0  0  0  0
   14.7353    5.9195   22.5874 H   0  0  0  0  0  0  0  0  0  0  0  0
   16.0939    7.1691   20.1444 H   0  0  0  0  0  0  0  0  0  0  0  0
   17.0824    5.2683   22.3649 H   0  0  0  0  0  0  0  0  0  0  0  0
   17.8779    8.2092   21.8899 H   0  0  0  0  0  0  0  0  0  0  0  0
   18.4814    7.1158   23.1985 H   0  0  0  0  0  0  0  0  0  0  0  0
   16.1830    6.8230   24.0787 H   0  0  0  0  0  0  0  0  0  0  0  0
   16.8924    9.7790   23.6081 H   0  0  0  0  0  0  0  0  0  0  0  0
   17.5310    8.7119   24.9242 H   0  0  0  0  0  0  0  0  0  0  0  0
   15.7769    9.1228   24.8647 H   0  0  0  0  0  0  0  0  0  0  0  0
   18.9442    7.5873   20.0367 H   0  0  0  0  0  0  0  0  0  0  0  0
   17.8800    6.6057   18.9365 H   0  0  0  0  0  0  0  0  0  0  0  0
   19.5920    6.1968   19.1036 H   0  0  0  0  0  0  0  0  0  0  0  0
   19.5216    4.3630   22.0753 H   0  0  0  0  0  0  0  0  0  0  0  0
   19.7574    6.1312   22.3122 H   0  0  0  0  0  0  0  0  0  0  0  0
   20.5047    5.3380   20.8991 H   0  0  0  0  0  0  0  0  0  0  0  0
    9.0326    2.6854   21.3148 H   0  0  0  0  0  0  0  0  0  0  0  0
    9.3062    2.5488   19.5679 H   0  0  0  0  0  0  0  0  0  0  0  0
    7.7348    3.1885   20.1418 H   0  0  0  0  0  0  0  0  0  0  0  0
   13.1287    4.9984   19.5293 H   0  0  0  0  0  0  0  0  0  0  0  0
   11.6288    5.2227   18.5672 H   0  0  0  0  0  0  0  0  0  0  0  0
   12.6826    6.6193   18.8792 H   0  0  0  0  0  0  0  0  0  0  0  0
   13.4011    8.2265   24.0595 H   0  0  0  0  0  0  0  0  0  0  0  0
   12.6159    6.6461   24.4254 H   0  0  0  0  0  0  0  0  0  0  0  0
   11.8068    8.1885   24.7859 H   0  0  0  0  0  0  0  0  0  0  0  0
   12.2002   12.2577   22.8539 H   0  0  0  0  0  0  0  0  0  0  0  0
   10.9343   12.0998   21.5730 H   0  0  0  0  0  0  0  0  0  0  0  0
   12.5685   11.3882   21.3258 H   0  0  0  0  0  0  0  0  0  0  0  0
    8.6905   12.4693   21.9012 H   0  0  0  0  0  0  0  0  0  0  0  0
    7.4902   11.7522   20.7847 H   0  0  0  0  0  0  0  0  0  0  0  0
    7.3141   11.5092   22.5664 H   0  0  0  0  0  0  0  0  0  0  0  0
    7.5713    9.2025   18.0012 H   0  0  0  0  0  0  0  0  0  0  0  0
    9.0141    8.5188   18.8551 H   0  0  0  0  0  0  0  0  0  0  0  0
    8.6021   10.2176   19.0728 H   0  0  0  0  0  0  0  0  0  0  0  0
    4.8277    6.8119   19.3039 H   0  0  0  0  0  0  0  0  0  0  0  0
    5.7387    7.9256   18.2187 H   0  0  0  0  0  0  0  0  0  0  0  0
    5.6952    5.7395   17.1508 H   0  0  0  0  0  0  0  0  0  0  0  0
    6.2214    4.9289   18.6682 H   0  0  0  0  0  0  0  0  0  0  0  0
    7.3787    5.9839   17.7776 H   0  0  0  0  0  0  0  0  0  0  0  0
  3  1  2  0
  4  1  1  0
  5  1  1  0
  6  4  1  0
  6  7  1  0
  8  6  1  0
 10  8  1  0
 12 10  1  0
 14 12  1  0
 10 15  1  0
 16 14  1  0
 18 16  1  0
 20 18  1  0
 12 21  1  1
 22 20  1  0
 23 18  2  0
 24 22  1  0
 22 25  1  0
 26 24  1  0
 26  5  1  0
 24 27  1  1
 28  7  1  0
 28  9  1  0
 29 28  1  0
 30 29  1  0
 30 11  1  6
 31 30  1  0
 31 13  1  0
 32 31  1  0
 32  9  1  0
 30 33  1  0
 34 11  1  0
 32 35  1  0
 36 15  1  0
 36 19  1  0
 37 17  1  0
 37 36  1  0
 38 37  1  0
 38  2  1  0
 39 38  1  0
 40 39  1  0
 40 19  1  0
 40 41  1  0
 42  2  1  0
 43  2  1  0
  4 44  1  0
  8 45  1  0
 12 46  1  0
 16 47  1  0
 20 48  1  0
 24 49  1  0
 26 50  1  0
 51 50  1  0
  4 52  1  6
  6 53  1  1
  8 54  1  6
 10 55  1  1
 13 56  1  0
 14 57  1  0
 14 58  1  0
 16 59  1  1
 17 60  1  0
 20 61  1  6
 21 62  1  0
 22 63  1  1
 25 64  1  0
 26 65  1  1
 27 66  1  0
 28 67  1  1
 29 68  1  0
 29 69  1  0
 31 70  1  1
 32 71  1  6
 33 72  1  0
 33 73  1  0
 33 74  1  0
 34 75  1  0
 34 76  1  0
 34 77  1  0
 35 78  1  0
 35 79  1  0
 35 80  1  0
 36 81  1  1
 37 82  1  6
 38 83  1  1
 39 84  1  0
 39 85  1  0
 40 86  1  1
 41 87  1  0
 41 88  1  0
 41 89  1  0
 42 90  1  0
 42 91  1  0
 42 92  1  0
 43 93  1  0
 43 94  1  0
 43 95  1  0
 44 96  1  0
 44 97  1  0
 44 98  1  0
 45 99  1  0
 45100  1  0
 45101  1  0
 46102  1  0
 46103  1  0
 46104  1  0
 47105  1  0
 47106  1  0
 47107  1  0
 48108  1  0
 48109  1  0
 48110  1  0
 49111  1  0
 49112  1  0
 49113  1  0
 50114  1  0
 50115  1  0
 51116  1  0
 51117  1  0
 51118  1  0
M  END
