
     RDKit          3D

 52 54  0  0  0  0  0  0  0  0999 V2000
   21.2410   68.7982   66.2966 N   0  0  0  0  0  0  0  0  0  0  0  0
   22.5931   69.2766   65.9971 C   0  0  2  0  0  0  0  0  0  0  0  0
   22.5594   70.2352   64.8703 C   0  0  0  0  0  0  0  0  0  0  0  0
   21.7798   70.0646   63.8927 O   0  0  0  0  0  0  0  0  0  0  0  0
   23.5034   71.2838   64.8807 N   0  0  0  0  0  0  0  0  0  0  0  0
   22.4916   73.0339   63.2365 O   0  0  0  0  0  0  0  0  0  0  0  0
   24.8834   73.1640   63.7512 O   0  0  0  0  0  0  0  0  0  0  0  0
   23.5570   68.1479   65.6076 C   0  0  0  0  0  0  0  0  0  0  0  0
   23.7328   72.2432   63.5021 S   0  0  0  0  0  0  0  0  0  0  0  0
   23.6015   67.0873   66.6524 C   0  0  0  0  0  0  0  0  0  0  0  0
   23.2249   65.7571   66.3266 N   0  0  0  0  0  0  0  0  0  0  0  0
   23.9771   67.3661   67.8213 O   0  0  0  0  0  0  0  0  0  0  0  0
   25.1911   70.4870   62.3738 C   0  0  0  0  0  0  0  0  0  0  0  0
   24.0292   71.2562   62.1824 O   0  0  0  0  0  0  0  0  0  0  0  0
   26.0190   70.5603   61.0906 C   0  0  1  0  0  0  0  0  0  0  0  0
   25.1940   70.2928   59.9682 O   0  0  0  0  0  0  0  0  0  0  0  0
   26.6478   71.9361   60.8670 C   0  0  1  0  0  0  0  0  0  0  0  0
   27.8723   72.1086   61.5342 O   0  0  0  0  0  0  0  0  0  0  0  0
   26.8353   71.9321   59.3701 C   0  0  1  0  0  0  0  0  0  0  0  0
   28.0600   71.3353   58.9954 O   0  0  0  0  0  0  0  0  0  0  0  0
   25.6570   71.0881   58.8891 C   0  0  2  0  0  0  0  0  0  0  0  0
   23.4323   72.9397   54.6229 N   0  0  0  0  0  0  0  0  0  0  0  0
   24.4995   72.0905   54.7469 C   0  0  0  0  0  0  0  0  0  0  0  0
   24.9486   71.7135   55.9814 N   0  0  0  0  0  0  0  0  0  0  0  0
   24.3108   72.2014   57.0750 C   0  0  0  0  0  0  0  0  0  0  0  0
   23.2551   73.0491   56.9845 C   0  0  0  0  0  0  0  0  0  0  0  0
   22.7876   73.4367   55.7207 C   0  0  0  0  0  0  0  0  0  0  0  0
   21.6814   74.3189   55.5603 N   0  0  0  0  0  0  0  0  0  0  0  0
   22.8208   73.3825   58.2195 N   0  0  0  0  0  0  0  0  0  0  0  0
   23.6648   72.6915   59.0411 C   0  0  0  0  0  0  0  0  0  0  0  0
   24.5795   71.9430   58.3641 N   0  0  0  0  0  0  0  0  0  0  0  0
   20.8377   68.2821   65.4804 H   0  0  0  0  0  0  0  0  0  0  0  0
   20.6198   69.6046   66.5396 H   0  0  0  0  0  0  0  0  0  0  0  0
   21.2689   68.1545   67.1201 H   0  0  0  0  0  0  0  0  0  0  0  0
   22.9871   69.7968   66.9005 H   0  0  0  0  0  0  0  0  0  0  0  0
   24.1386   71.4255   65.6978 H   0  0  0  0  0  0  0  0  0  0  0  0
   23.2573   67.7142   64.6279 H   0  0  0  0  0  0  0  0  0  0  0  0
   24.5872   68.5525   65.4919 H   0  0  0  0  0  0  0  0  0  0  0  0
   22.9046   65.5064   65.3650 H   0  0  0  0  0  0  0  0  0  0  0  0
   23.2578   65.0096   67.0549 H   0  0  0  0  0  0  0  0  0  0  0  0
   25.8240   70.7994   63.2362 H   0  0  0  0  0  0  0  0  0  0  0  0
   24.8876   69.4327   62.5486 H   0  0  0  0  0  0  0  0  0  0  0  0
   26.8132   69.7823   61.1489 H   0  0  0  0  0  0  0  0  0  0  0  0
   25.9395   72.7539   61.1382 H   0  0  0  0  0  0  0  0  0  0  0  0
   28.0932   73.0736   61.4692 H   0  0  0  0  0  0  0  0  0  0  0  0
   26.8022   72.9676   58.9646 H   0  0  0  0  0  0  0  0  0  0  0  0
   27.8979   70.3902   58.7391 H   0  0  0  0  0  0  0  0  0  0  0  0
   25.9915   70.4011   58.0798 H   0  0  0  0  0  0  0  0  0  0  0  0
   24.9906   71.7141   53.8602 H   0  0  0  0  0  0  0  0  0  0  0  0
   21.6246   74.9451   54.7267 H   0  0  0  0  0  0  0  0  0  0  0  0
   20.9156   74.3523   56.2695 H   0  0  0  0  0  0  0  0  0  0  0  0
   23.6061   72.7403   60.1183 H   0  0  0  0  0  0  0  0  0  0  0  0
  2  1  1  0
  3  2  1  0
  4  3  2  0
  5  3  1  0
  8  2  1  0
  9  7  2  0
  9  6  2  0
  9  5  1  0
 10  8  1  0
 11 10  1  0
 12 10  2  0
 14 13  1  0
 14  9  1  0
 15 13  1  0
 16 15  1  0
 17 15  1  0
 17 18  1  0
 19 17  1  0
 19 20  1  0
 21 16  1  0
 21 19  1  0
 23 22  2  0
 24 23  1  0
 25 24  2  0
 26 25  1  0
 27 26  2  0
 27 22  1  0
 28 27  1  0
 29 26  1  0
 30 29  2  0
 31 30  1  0
 31 25  1  0
 21 31  1  0
  1 32  1  0
  1 33  1  0
  1 34  1  0
  2 35  1  1
  5 36  1  0
  8 37  1  0
  8 38  1  0
 11 39  1  0
 11 40  1  0
 13 41  1  0
 13 42  1  0
 15 43  1  1
 17 44  1  6
 18 45  1  0
 19 46  1  6
 20 47  1  0
 21 48  1  6
 23 49  1  0
 28 50  1  0
 28 51  1  0
 30 52  1  0
M  CHG  1   1   1
M  END
