
     RDKit          3D

 56 56  0  0  0  0  0  0  0  0999 V2000
   18.9574   45.8572   44.1482 N   0  0  0  0  0  0  0  0  0  0  0  0
   20.3113   45.5346   44.5472 C   0  0  2  0  0  0  0  0  0  0  0  0
   13.2773   48.9727   41.8813 C   0  0  0  0  0  0  0  0  0  0  0  0
   22.9227   48.0973   48.9658 C   0  0  0  0  0  0  0  0  0  0  0  0
   23.4276   50.3924   48.4958 C   0  0  0  0  0  0  0  0  0  0  0  0
   22.7872   47.8407   47.5806 C   0  0  0  0  0  0  0  0  0  0  0  0
   23.2723   50.1453   47.1065 C   0  0  0  0  0  0  0  0  0  0  0  0
   23.6741   46.4843   42.7409 C   0  0  0  0  0  0  0  0  0  0  0  0
   22.7414   45.7816   43.7509 C   0  0  0  0  0  0  0  0  0  0  0  0
   23.6687   48.0232   42.8377 C   0  0  0  0  0  0  0  0  0  0  0  0
   14.9971   47.0596   41.3375 C   0  0  0  0  0  0  0  0  0  0  0  0
   14.9596   45.5373   41.4128 C   0  0  0  0  0  0  0  0  0  0  0  0
   17.2592   45.1848   40.4987 C   0  0  0  0  0  0  0  0  0  0  0  0
   18.2453   45.0657   43.2326 C   0  0  0  0  0  0  0  0  0  0  0  0
   22.7170   48.5842   45.1474 C   0  0  0  0  0  0  0  0  0  0  0  0
   20.5031   46.0706   45.9256 C   0  0  0  0  0  0  0  0  0  0  0  0
   20.0238   47.1918   46.2562 O   0  0  0  0  0  0  0  0  0  0  0  0
   23.8172   48.4583   44.2326 N   0  0  0  0  0  0  0  0  0  0  0  0
   16.9344   45.4581   42.8821 N   0  0  0  0  0  0  0  0  0  0  0  0
   18.0911   46.1344   40.5159 O   0  0  0  0  0  0  0  0  0  0  0  0
   18.7758   44.0546   42.7007 O   0  0  0  0  0  0  0  0  0  0  0  0
   21.5448   48.4003   44.7181 O   0  0  0  0  0  0  0  0  0  0  0  0
   17.1898   44.3486   39.4041 O   0  0  0  0  0  0  0  0  0  0  0  0
   13.4285   47.6505   40.6515 S   0  0  0  0  0  0  0  0  0  0  0  0
   21.2733   46.1716   43.5356 C   0  0  0  0  0  0  0  0  0  0  0  0
   23.2437   49.3737   49.4457 C   0  0  0  0  0  0  0  0  0  0  0  0
   22.9544   48.8577   46.6195 C   0  0  0  0  0  0  0  0  0  0  0  0
   16.3403   44.9349   41.6644 C   0  0  1  0  0  0  0  0  0  0  0  0
   21.1910   45.3079   46.8457 O   0  0  0  0  0  0  0  0  0  0  0  0
   23.4241   49.7377   51.5765 I   0  0  0  0  0  0  0  0  0  0  0  0
   18.5580   46.7994   44.3664 H   0  0  0  0  0  0  0  0  0  0  0  0
   20.4552   44.4308   44.5655 H   0  0  0  0  0  0  0  0  0  0  0  0
   13.2924   48.5511   42.9083 H   0  0  0  0  0  0  0  0  0  0  0  0
   12.3115   49.4960   41.7276 H   0  0  0  0  0  0  0  0  0  0  0  0
   14.1000   49.7082   41.7613 H   0  0  0  0  0  0  0  0  0  0  0  0
   22.7694   47.2892   49.6690 H   0  0  0  0  0  0  0  0  0  0  0  0
   23.6737   51.3914   48.8308 H   0  0  0  0  0  0  0  0  0  0  0  0
   22.5152   46.8411   47.2656 H   0  0  0  0  0  0  0  0  0  0  0  0
   23.4011   50.9650   46.4110 H   0  0  0  0  0  0  0  0  0  0  0  0
   24.7109   46.1215   42.9121 H   0  0  0  0  0  0  0  0  0  0  0  0
   23.3889   46.1875   41.7083 H   0  0  0  0  0  0  0  0  0  0  0  0
   22.8466   44.6820   43.6272 H   0  0  0  0  0  0  0  0  0  0  0  0
   23.0567   46.0359   44.7854 H   0  0  0  0  0  0  0  0  0  0  0  0
   22.7455   48.4351   42.3807 H   0  0  0  0  0  0  0  0  0  0  0  0
   24.5240   48.4190   42.2499 H   0  0  0  0  0  0  0  0  0  0  0  0
   15.1312   47.5057   42.3445 H   0  0  0  0  0  0  0  0  0  0  0  0
   15.8219   47.3959   40.6763 H   0  0  0  0  0  0  0  0  0  0  0  0
   14.2699   45.2303   42.2294 H   0  0  0  0  0  0  0  0  0  0  0  0
   14.5589   45.1206   40.4616 H   0  0  0  0  0  0  0  0  0  0  0  0
   24.7550   48.8029   44.5394 H   0  0  0  0  0  0  0  0  0  0  0  0
   16.4137   46.1021   43.5184 H   0  0  0  0  0  0  0  0  0  0  0  0
   16.2993   43.9937   39.0767 H   0  0  0  0  0  0  0  0  0  0  0  0
   21.1527   47.2732   43.6034 H   0  0  0  0  0  0  0  0  0  0  0  0
   20.9779   45.8636   42.5083 H   0  0  0  0  0  0  0  0  0  0  0  0
   16.2151   43.8351   41.7775 H   0  0  0  0  0  0  0  0  0  0  0  0
   21.0601   44.3044   46.8898 H   0  0  0  0  0  0  0  0  0  0  0  0
  2  1  1  0
  6  4  2  0
  7  5  1  0
  9  8  1  0
 10  8  1  0
 12 11  1  0
 14  1  1  0
 16  2  1  0
 17 16  2  0
 18 10  1  0
 18 15  1  0
 19 14  1  0
 20 13  2  0
 21 14  2  0
 22 15  2  0
 23 13  1  0
 24 11  1  0
 24  3  1  0
  2 25  1  0
 25  9  1  0
 26  5  2  0
 26  4  1  0
 27  7  2  0
 27 15  1  0
 27  6  1  0
 28 12  1  0
 28 19  1  0
 28 13  1  0
 29 16  1  0
 30 26  1  0
  1 31  1  0
  2 32  1  1
  3 33  1  0
  3 34  1  0
  3 35  1  0
  4 36  1  0
  5 37  1  0
  6 38  1  0
  7 39  1  0
  8 40  1  0
  8 41  1  0
  9 42  1  0
  9 43  1  0
 10 44  1  0
 10 45  1  0
 11 46  1  0
 11 47  1  0
 12 48  1  0
 12 49  1  0
 18 50  1  0
 19 51  1  0
 23 52  1  0
 25 53  1  0
 25 54  1  0
 28 55  1  1
 29 56  1  0
M  END
