
     RDKit          3D

 35 36  0  0  0  0  0  0  0  0999 V2000
   -1.0086   13.2691   12.1309 Cl  0  0  0  0  0  0  0  0  0  0  0  0
   -1.6093   11.7846   14.2119 N   0  0  0  0  0  0  0  0  0  0  0  0
   -1.8757   10.6705   14.9190 C   0  0  0  0  0  0  0  0  0  0  0  0
   -1.7919    9.4677   14.3182 N   0  0  0  0  0  0  0  0  0  0  0  0
   -1.4258    9.3334   13.0125 C   0  0  0  0  0  0  0  0  0  0  0  0
   -1.1719   10.4810   12.2237 C   0  0  0  0  0  0  0  0  0  0  0  0
   -1.2889   11.7293   12.8953 C   0  0  0  0  0  0  0  0  0  0  0  0
   -1.2146    8.0173   12.4981 N   0  0  0  0  0  0  0  0  0  0  0  0
   -3.2198    4.8698   13.1503 C   0  0  0  0  0  0  0  0  0  0  0  0
   -2.4874    4.2615   14.1961 C   0  0  0  0  0  0  0  0  0  0  0  0
   -2.9800    3.1421   14.8510 C   0  0  0  0  0  0  0  0  0  0  0  0
   -4.2083    2.6041   14.4734 C   0  0  0  0  0  0  0  0  0  0  0  0
   -4.9443    3.1907   13.4350 C   0  0  0  0  0  0  0  0  0  0  0  0
   -4.4546    4.3203   12.7769 C   0  0  0  0  0  0  0  0  0  0  0  0
   -4.7998    1.1805   15.2999 S   0  0  0  0  0  0  0  0  0  0  0  0
   -6.2532    0.9841   14.9536 O   0  0  0  0  0  0  0  0  0  0  0  0
   -3.9767   -0.0109   14.8855 O   0  0  0  0  0  0  0  0  0  0  0  0
   -4.6209    1.4165   16.9991 N   0  0  0  0  0  0  0  0  0  0  0  0
   -0.8101   10.3817   10.8093 N   0  0  0  0  0  0  0  0  0  0  0  0
   -0.4212    9.1993   10.2329 O   0  0  0  0  0  0  0  0  0  0  0  0
   -0.8413   11.3751   10.0566 O   0  0  0  0  0  0  0  0  0  0  0  0
   -1.6623    6.8523   13.2248 C   0  0  0  0  0  0  0  0  0  0  0  0
   -2.7298    6.1010   12.4304 C   0  0  0  0  0  0  0  0  0  0  0  0
   -2.1498   10.7400   15.9626 H   0  0  0  0  0  0  0  0  0  0  0  0
   -0.3490    7.8292   11.9519 H   0  0  0  0  0  0  0  0  0  0  0  0
   -1.5282    4.6206   14.5326 H   0  0  0  0  0  0  0  0  0  0  0  0
   -2.4043    2.6923   15.6507 H   0  0  0  0  0  0  0  0  0  0  0  0
   -5.9001    2.7801   13.1365 H   0  0  0  0  0  0  0  0  0  0  0  0
   -5.0378    4.7679   11.9812 H   0  0  0  0  0  0  0  0  0  0  0  0
   -3.7357    1.9524   17.1417 H   0  0  0  0  0  0  0  0  0  0  0  0
   -5.4028    2.0377   17.3061 H   0  0  0  0  0  0  0  0  0  0  0  0
   -2.0611    7.1890   14.2060 H   0  0  0  0  0  0  0  0  0  0  0  0
   -0.7949    6.1774   13.4060 H   0  0  0  0  0  0  0  0  0  0  0  0
   -3.5988    6.7674   12.2432 H   0  0  0  0  0  0  0  0  0  0  0  0
   -2.3019    5.8035   11.4479 H   0  0  0  0  0  0  0  0  0  0  0  0
  3  2  2  0
  4  3  1  0
  5  4  2  0
  6  5  1  0
  7  6  2  0
  7  2  1  0
  7  1  1  0
  8  5  1  0
 10  9  2  0
 11 10  1  0
 12 11  2  0
 13 12  1  0
 14 13  2  0
 14  9  1  0
 15 12  1  0
 16 15  2  0
 17 15  2  0
 15 18  1  0
 19  6  1  0
 20 19  1  0
 21 19  2  0
 22  8  1  0
 23  9  1  0
 23 22  1  0
  3 24  1  0
  8 25  1  0
 10 26  1  0
 11 27  1  0
 13 28  1  0
 14 29  1  0
 18 30  1  0
 18 31  1  0
 22 32  1  0
 22 33  1  0
 23 34  1  0
 23 35  1  0
M  CHG  2  19   1  20  -1
M  END
