
     RDKit          3D

 23 23  0  0  0  0  0  0  0  0999 V2000
   20.3053    3.0541   26.8166 N   0  0  0  0  0  0  0  0  0  0  0  0
   19.6644    3.1770   25.5032 C   0  0  2  0  0  0  0  0  0  0  0  0
   19.6146    4.6263   25.0875 C   0  0  0  0  0  0  0  0  0  0  0  0
   18.2471    2.5744   25.5562 C   0  0  0  0  0  0  0  0  0  0  0  0
   18.2633    1.1507   26.0604 C   0  0  0  0  0  0  0  0  0  0  0  0
   19.1667    0.1674   25.7285 C   0  0  0  0  0  0  0  0  0  0  0  0
   17.4244    0.5226   26.9709 C   0  0  0  0  0  0  0  0  0  0  0  0
   16.2468    1.1227   27.6785 C   0  0  0  0  0  0  0  0  0  0  0  0
   18.8837   -0.9719   26.3887 N   0  0  0  0  0  0  0  0  0  0  0  0
   20.2240    0.3148   24.8396 O   0  0  0  0  0  0  0  0  0  0  0  0
   17.8330   -0.7234   27.1255 O   0  0  0  0  0  0  0  0  0  0  0  0
   18.6353    5.0677   24.4286 O   0  0  0  0  0  0  0  0  0  0  0  0
   20.6737    5.4679   25.3885 O   0  0  0  0  0  0  0  0  0  0  0  0
   20.4547    2.0395   27.0183 H   0  0  0  0  0  0  0  0  0  0  0  0
   21.2719    3.4499   26.7527 H   0  0  0  0  0  0  0  0  0  0  0  0
   20.2682    2.6272   24.7452 H   0  0  0  0  0  0  0  0  0  0  0  0
   17.7977    2.5775   24.5393 H   0  0  0  0  0  0  0  0  0  0  0  0
   17.5976    3.1964   26.2095 H   0  0  0  0  0  0  0  0  0  0  0  0
   15.5956    0.3166   28.0761 H   0  0  0  0  0  0  0  0  0  0  0  0
   16.5910    1.7548   28.5218 H   0  0  0  0  0  0  0  0  0  0  0  0
   15.6585    1.7418   26.9697 H   0  0  0  0  0  0  0  0  0  0  0  0
   20.9666   -0.3727   24.8034 H   0  0  0  0  0  0  0  0  0  0  0  0
   21.6075    5.2708   25.0489 H   0  0  0  0  0  0  0  0  0  0  0  0
  2  1  1  0
  3  2  1  0
  4  2  1  0
  5  4  1  0
  6  5  1  0
  7  5  2  0
  8  7  1  0
  9  6  2  0
 10  6  1  0
 11  9  1  0
 11  7  1  0
 12  3  2  0
 13  3  1  0
  1 14  1  0
  1 15  1  0
  2 16  1  6
  4 17  1  0
  4 18  1  0
  8 19  1  0
  8 20  1  0
  8 21  1  0
 10 22  1  0
 13 23  1  0
M  END
