
     RDKit          3D

 23 23  0  0  0  0  0  0  0  0999 V2000
   20.4905    4.1212   27.5721 N   0  0  0  0  0  0  0  0  0  0  0  0
   19.8510    4.2434   26.2579 C   0  0  2  0  0  0  0  0  0  0  0  0
   19.6781    5.6992   25.9022 C   0  0  0  0  0  0  0  0  0  0  0  0
   18.4913    3.5183   26.2702 C   0  0  0  0  0  0  0  0  0  0  0  0
   18.6497    2.0294   26.0710 C   0  0  0  0  0  0  0  0  0  0  0  0
   18.8228    1.3700   24.8758 C   0  0  0  0  0  0  0  0  0  0  0  0
   18.6915    1.0084   27.0106 C   0  0  0  0  0  0  0  0  0  0  0  0
   18.5619    1.1426   28.4982 C   0  0  0  0  0  0  0  0  0  0  0  0
   18.9518    0.0459   25.0851 N   0  0  0  0  0  0  0  0  0  0  0  0
   18.8599    1.9720   23.6244 O   0  0  0  0  0  0  0  0  0  0  0  0
   18.8688   -0.1362   26.3768 O   0  0  0  0  0  0  0  0  0  0  0  0
   19.1266    6.0300   24.8184 O   0  0  0  0  0  0  0  0  0  0  0  0
   20.1715    6.6800   26.7477 O   0  0  0  0  0  0  0  0  0  0  0  0
   20.6386    3.1066   27.7750 H   0  0  0  0  0  0  0  0  0  0  0  0
   21.4575    4.5160   27.5088 H   0  0  0  0  0  0  0  0  0  0  0  0
   20.5060    3.7807   25.4845 H   0  0  0  0  0  0  0  0  0  0  0  0
   17.8470    3.9112   25.4538 H   0  0  0  0  0  0  0  0  0  0  0  0
   17.9685    3.7147   27.2312 H   0  0  0  0  0  0  0  0  0  0  0  0
   18.5336    0.1364   28.9659 H   0  0  0  0  0  0  0  0  0  0  0  0
   19.4264    1.7040   28.9065 H   0  0  0  0  0  0  0  0  0  0  0  0
   17.6229    1.6797   28.7462 H   0  0  0  0  0  0  0  0  0  0  0  0
   19.1194    1.4388   22.8035 H   0  0  0  0  0  0  0  0  0  0  0  0
   19.9561    6.6703   27.7375 H   0  0  0  0  0  0  0  0  0  0  0  0
  2  1  1  0
  3  2  1  0
  4  2  1  0
  5  4  1  0
  6  5  1  0
  7  5  2  0
  8  7  1  0
  9  6  2  0
 10  6  1  0
 11  9  1  0
 11  7  1  0
 12  3  2  0
 13  3  1  0
  1 14  1  0
  1 15  1  0
  2 16  1  6
  4 17  1  0
  4 18  1  0
  8 19  1  0
  8 20  1  0
  8 21  1  0
 10 22  1  0
 13 23  1  0
M  END
