
     RDKit          3D

 59 63  0  0  0  0  0  0  0  0999 V2000
   -0.0870    5.9879   27.8867 Cl  0  0  0  0  0  0  0  0  0  0  0  0
   -0.9949   12.2969   22.4436 C   0  0  1  0  0  0  0  0  0  0  0  0
   -0.3881    8.4606   26.2042 S   0  0  0  0  0  0  0  0  0  0  0  0
   -1.1971   11.2120   21.3809 C   0  0  2  0  0  0  0  0  0  0  0  0
   -1.5996   13.5226   21.8990 N   0  0  0  0  0  0  0  0  0  0  0  0
   -1.5524   11.8862   23.7788 C   0  0  0  0  0  0  0  0  0  0  0  0
   -1.2351   11.9877   20.0527 C   0  0  2  0  0  0  0  0  0  0  0  0
   -2.5303   10.5092   21.3921 C   0  0  0  0  0  0  0  0  0  0  0  0
   -1.3672   13.4640   20.4514 C   0  0  2  0  0  0  0  0  0  0  0  0
   -0.9367   14.7476   22.3708 C   0  0  0  0  0  0  0  0  0  0  0  0
   -2.5992   12.4561   24.4187 N   0  0  0  0  0  0  0  0  0  0  0  0
   -2.7596   11.6825   25.5171 C   0  0  0  0  0  0  0  0  0  0  0  0
   -2.4789   11.5206   19.3790 C   0  0  0  0  0  0  0  0  0  0  0  0
   -3.1938   10.5954   20.1550 N   0  0  0  0  0  0  0  0  0  0  0  0
   -3.0372    9.9224   22.3836 O   0  0  0  0  0  0  0  0  0  0  0  0
   -0.1042   14.2603   20.1404 C   0  0  0  0  0  0  0  0  0  0  0  0
    0.0399   15.2230   21.2975 C   0  0  0  0  0  0  0  0  0  0  0  0
   -1.0868   10.8387   24.4112 O   0  0  0  0  0  0  0  0  0  0  0  0
   -1.8107   10.6886   25.4869 C   0  0  0  0  0  0  0  0  0  0  0  0
   -2.9261   11.9986   18.3031 O   0  0  0  0  0  0  0  0  0  0  0  0
   -4.5510   10.1627   19.9002 C   0  0  0  0  0  0  0  0  0  0  0  0
   -1.6215    9.5810   26.4070 C   0  0  0  0  0  0  0  0  0  0  0  0
   -4.8822   10.5129   18.4636 C   0  0  0  0  0  0  0  0  0  0  0  0
   -2.4427    9.2067   27.4665 C   0  0  0  0  0  0  0  0  0  0  0  0
   -4.8192    9.2600   17.5854 C   0  0  0  0  0  0  0  0  0  0  0  0
   -2.0228    8.0159   28.0695 C   0  0  0  0  0  0  0  0  0  0  0  0
   -0.8861    7.4853   27.4690 C   0  0  0  0  0  0  0  0  0  0  0  0
   -5.3805    9.4380   16.2186 N   0  0  0  0  0  0  0  0  0  0  0  0
   -5.3902   10.8657   15.8184 C   0  0  0  0  0  0  0  0  0  0  0  0
   -4.5034    8.6955   15.2859 C   0  0  0  0  0  0  0  0  0  0  0  0
   -6.7497    8.8731   16.1192 C   0  0  0  0  0  0  0  0  0  0  0  0
    0.1064   12.4304   22.5667 H   0  0  0  0  0  0  0  0  0  0  0  0
   -0.3735   10.4645   21.3957 H   0  0  0  0  0  0  0  0  0  0  0  0
   -0.3510   11.7649   19.4155 H   0  0  0  0  0  0  0  0  0  0  0  0
   -2.2237   13.9614   19.9400 H   0  0  0  0  0  0  0  0  0  0  0  0
   -1.7135   15.5259   22.5325 H   0  0  0  0  0  0  0  0  0  0  0  0
   -0.4170   14.5987   23.3445 H   0  0  0  0  0  0  0  0  0  0  0  0
   -3.5248   11.8317   26.2669 H   0  0  0  0  0  0  0  0  0  0  0  0
   -0.1968   14.7986   19.1718 H   0  0  0  0  0  0  0  0  0  0  0  0
    0.7968   13.6079   20.1075 H   0  0  0  0  0  0  0  0  0  0  0  0
   -0.2184   16.2554   20.9738 H   0  0  0  0  0  0  0  0  0  0  0  0
    1.0823   15.2182   21.6852 H   0  0  0  0  0  0  0  0  0  0  0  0
   -4.6419    9.0657   20.0600 H   0  0  0  0  0  0  0  0  0  0  0  0
   -5.2548   10.6689   20.5972 H   0  0  0  0  0  0  0  0  0  0  0  0
   -4.1476   11.2606   18.0931 H   0  0  0  0  0  0  0  0  0  0  0  0
   -5.8903   10.9719   18.4635 H   0  0  0  0  0  0  0  0  0  0  0  0
   -3.3223    9.7552   27.7765 H   0  0  0  0  0  0  0  0  0  0  0  0
   -3.7545    8.9339   17.5247 H   0  0  0  0  0  0  0  0  0  0  0  0
   -5.3698    8.4434   18.1100 H   0  0  0  0  0  0  0  0  0  0  0  0
   -2.5369    7.5505   28.8998 H   0  0  0  0  0  0  0  0  0  0  0  0
   -6.0004   11.4743   16.5225 H   0  0  0  0  0  0  0  0  0  0  0  0
   -5.8050   10.9979   14.7960 H   0  0  0  0  0  0  0  0  0  0  0  0
   -4.3581   11.2829   15.8061 H   0  0  0  0  0  0  0  0  0  0  0  0
   -4.8484    8.8039   14.2327 H   0  0  0  0  0  0  0  0  0  0  0  0
   -4.4909    7.6073   15.5229 H   0  0  0  0  0  0  0  0  0  0  0  0
   -3.4558    9.0706   15.3325 H   0  0  0  0  0  0  0  0  0  0  0  0
   -7.0662    8.7771   15.0562 H   0  0  0  0  0  0  0  0  0  0  0  0
   -7.5062    9.5296   16.5995 H   0  0  0  0  0  0  0  0  0  0  0  0
   -6.8041    7.8625   16.5823 H   0  0  0  0  0  0  0  0  0  0  0  0
  4  2  1  0
  5  2  1  0
  2  6  1  0
  7  4  1  0
  4  8  1  0
  9  7  1  0
  9  5  1  0
 10  5  1  0
 11  6  2  0
 12 11  1  0
  7 13  1  0
 14  8  1  0
 14 13  1  0
 15  8  2  0
  9 16  1  0
 17 16  1  0
 17 10  1  0
 18  6  1  0
 19 18  1  0
 19 12  2  0
 20 13  2  0
 21 14  1  0
 22 19  1  0
 22  3  1  0
 23 21  1  0
 24 22  2  0
 25 23  1  0
 26 24  1  0
 27  3  1  0
 27 26  2  0
 27  1  1  0
 28 25  1  0
 28 29  1  0
 30 28  1  0
 31 28  1  0
  2 32  1  1
  4 33  1  6
  7 34  1  6
  9 35  1  6
 10 36  1  0
 10 37  1  0
 12 38  1  0
 16 39  1  0
 16 40  1  0
 17 41  1  0
 17 42  1  0
 21 43  1  0
 21 44  1  0
 23 45  1  0
 23 46  1  0
 24 47  1  0
 25 48  1  0
 25 49  1  0
 26 50  1  0
 29 51  1  0
 29 52  1  0
 29 53  1  0
 30 54  1  0
 30 55  1  0
 30 56  1  0
 31 57  1  0
 31 58  1  0
 31 59  1  0
M  CHG  1  28   1
M  END
