
     RDKit          3D

 34 36  0  0  0  0  0  0  0  0999 V2000
    8.3441    2.3136   26.2107 N   0  0  0  0  0  0  0  0  0  0  0  0
    7.6192    1.6798   25.0978 C   0  0  2  0  0  0  0  0  0  0  0  0
    7.8710    0.2896   25.0914 O   0  0  0  0  0  0  0  0  0  0  0  0
    8.0020    3.4475   26.8614 C   0  0  0  0  0  0  0  0  0  0  0  0
    6.9400    4.2413   26.5760 N   0  0  0  0  0  0  0  0  0  0  0  0
    6.8703    2.3543   22.9178 O   0  0  0  0  0  0  0  0  0  0  0  0
    6.7311    5.3614   27.3225 C   0  0  0  0  0  0  0  0  0  0  0  0
    7.5810    5.6798   28.3428 N   0  0  0  0  0  0  0  0  0  0  0  0
    8.8111    1.1331   21.7702 O   0  0  0  0  0  0  0  0  0  0  0  0
    8.6551    4.8971   28.6577 C   0  0  0  0  0  0  0  0  0  0  0  0
   11.9065    2.3880   29.3437 N   0  0  0  0  0  0  0  0  0  0  0  0
   10.6899   -0.9590   23.1628 O   0  0  0  0  0  0  0  0  0  0  0  0
    8.8700    3.7340   27.8863 C   0  0  0  0  0  0  0  0  0  0  0  0
    9.5061    5.2799   29.7360 N   0  0  0  0  0  0  0  0  0  0  0  0
    9.8122    2.7015   27.8648 C   0  0  0  0  0  0  0  0  0  0  0  0
    9.4593    1.8484   26.8241 C   0  0  0  0  0  0  0  0  0  0  0  0
   10.9619    2.5339   28.6947 C   0  0  0  0  0  0  0  0  0  0  0  0
    8.0081    2.2696   23.7401 C   0  0  2  0  0  0  0  0  0  0  0  0
    8.9462    1.2465   23.1685 C   0  0  1  0  0  0  0  0  0  0  0  0
    8.5563   -0.0437   23.9032 C   0  0  1  0  0  0  0  0  0  0  0  0
    9.7551   -0.9582   24.2097 C   0  0  0  0  0  0  0  0  0  0  0  0
    6.5288    1.8255   25.2663 H   0  0  0  0  0  0  0  0  0  0  0  0
    7.0633    3.0413   22.2272 H   0  0  0  0  0  0  0  0  0  0  0  0
    5.8893    6.0037   27.1037 H   0  0  0  0  0  0  0  0  0  0  0  0
    7.9566    0.6787   21.5498 H   0  0  0  0  0  0  0  0  0  0  0  0
   11.2237   -1.7887   23.2700 H   0  0  0  0  0  0  0  0  0  0  0  0
   10.2602    4.6335   30.0582 H   0  0  0  0  0  0  0  0  0  0  0  0
    9.4066    6.1973   30.2192 H   0  0  0  0  0  0  0  0  0  0  0  0
    9.9811    0.9425   26.5525 H   0  0  0  0  0  0  0  0  0  0  0  0
    8.4976    3.2672   23.8525 H   0  0  0  0  0  0  0  0  0  0  0  0
    9.9776    1.5875   23.3930 H   0  0  0  0  0  0  0  0  0  0  0  0
    7.8414   -0.6371   23.2911 H   0  0  0  0  0  0  0  0  0  0  0  0
   10.2419   -0.6354   25.1574 H   0  0  0  0  0  0  0  0  0  0  0  0
    9.3798   -1.9964   24.3530 H   0  0  0  0  0  0  0  0  0  0  0  0
  2  1  1  0
  3  2  1  0
  4  1  1  0
  5  4  2  0
  7  5  1  0
  8  7  2  0
 10  8  1  0
 13 10  2  0
 13  4  1  0
 14 10  1  0
 15 13  1  0
 16  1  1  0
 16 15  2  0
 17 15  1  0
 17 11  3  0
 18  6  1  0
 18  2  1  0
 19 18  1  0
 19  9  1  0
 20 19  1  0
 20  3  1  0
 20 21  1  0
 21 12  1  0
  2 22  1  1
  6 23  1  0
  7 24  1  0
  9 25  1  0
 12 26  1  0
 14 27  1  0
 14 28  1  0
 16 29  1  0
 18 30  1  1
 19 31  1  6
 20 32  1  6
 21 33  1  0
 21 34  1  0
M  END
