
     RDKit          3D

 34 36  0  0  0  0  0  0  0  0999 V2000
  -17.1878   -3.5844    3.1254 N   0  0  0  0  0  0  0  0  0  0  0  0
  -17.8715   -3.1751    4.3602 C   0  0  2  0  0  0  0  0  0  0  0  0
  -18.3830   -1.8627    4.2141 O   0  0  0  0  0  0  0  0  0  0  0  0
  -17.5374   -4.5627    2.2511 C   0  0  0  0  0  0  0  0  0  0  0  0
  -18.6173   -5.3808    2.3283 N   0  0  0  0  0  0  0  0  0  0  0  0
  -17.5245   -3.9949    6.5792 O   0  0  0  0  0  0  0  0  0  0  0  0
  -18.8164   -6.3087    1.3433 C   0  0  0  0  0  0  0  0  0  0  0  0
  -17.9448   -6.4158    0.2946 N   0  0  0  0  0  0  0  0  0  0  0  0
  -16.9716   -1.6956    7.3908 O   0  0  0  0  0  0  0  0  0  0  0  0
  -16.8530   -5.6064    0.1913 C   0  0  0  0  0  0  0  0  0  0  0  0
  -13.6004   -3.0738    0.0946 N   0  0  0  0  0  0  0  0  0  0  0  0
  -18.4681    1.2289    4.6046 O   0  0  0  0  0  0  0  0  0  0  0  0
  -16.6507   -4.6498    1.2090 C   0  0  0  0  0  0  0  0  0  0  0  0
  -15.9702   -5.7593   -0.9196 N   0  0  0  0  0  0  0  0  0  0  0  0
  -15.6992   -3.6674    1.4596 C   0  0  0  0  0  0  0  0  0  0  0  0
  -16.0480   -3.0401    2.6402 C   0  0  0  0  0  0  0  0  0  0  0  0
  -14.5487   -3.3717    0.6804 C   0  0  0  0  0  0  0  0  0  0  0  0
  -16.9275   -3.2320    5.5597 C   0  0  2  0  0  0  0  0  0  0  0  0
  -16.7777   -1.7964    6.0031 C   0  0  1  0  0  0  0  0  0  0  0  0
  -17.8794   -1.0471    5.2491 C   0  0  1  0  0  0  0  0  0  0  0  0
  -17.4098    0.3087    4.6833 C   0  0  0  0  0  0  0  0  0  0  0  0
  -18.7365   -3.8572    4.5200 H   0  0  0  0  0  0  0  0  0  0  0  0
  -16.7987   -4.2604    7.2029 H   0  0  0  0  0  0  0  0  0  0  0  0
  -19.6732   -6.9663    1.3947 H   0  0  0  0  0  0  0  0  0  0  0  0
  -17.3322   -0.7859    7.5579 H   0  0  0  0  0  0  0  0  0  0  0  0
  -18.3006    1.7723    3.7914 H   0  0  0  0  0  0  0  0  0  0  0  0
  -16.3623   -5.9630   -1.8657 H   0  0  0  0  0  0  0  0  0  0  0  0
  -14.9373   -5.6721   -0.8342 H   0  0  0  0  0  0  0  0  0  0  0  0
  -15.5047   -2.2280    3.1016 H   0  0  0  0  0  0  0  0  0  0  0  0
  -15.9377   -3.6645    5.2746 H   0  0  0  0  0  0  0  0  0  0  0  0
  -15.7541   -1.4469    5.7359 H   0  0  0  0  0  0  0  0  0  0  0  0
  -18.7270   -0.8438    5.9419 H   0  0  0  0  0  0  0  0  0  0  0  0
  -16.6000    0.7160    5.3292 H   0  0  0  0  0  0  0  0  0  0  0  0
  -16.9930    0.1441    3.6645 H   0  0  0  0  0  0  0  0  0  0  0  0
  2  1  1  0
  3  2  1  0
  4  1  1  0
  5  4  2  0
  7  5  1  0
  8  7  2  0
 10  8  1  0
 13 10  2  0
 13  4  1  0
 14 10  1  0
 15 13  1  0
 16  1  1  0
 16 15  2  0
 17 15  1  0
 17 11  3  0
 18  2  1  0
 18  6  1  0
 19 18  1  0
 19  9  1  0
 20  3  1  0
 20 19  1  0
 20 21  1  0
 21 12  1  0
  2 22  1  1
  6 23  1  0
  7 24  1  0
  9 25  1  0
 12 26  1  0
 14 27  1  0
 14 28  1  0
 16 29  1  0
 18 30  1  6
 19 31  1  1
 20 32  1  1
 21 33  1  0
 21 34  1  0
M  END
