
     RDKit          3D

 24 24  0  0  0  0  0  0  0  0999 V2000
  -18.4062   57.1958   46.3655 C   0  0  2  0  0  0  0  0  0  0  0  0
  -17.9204   56.2793   47.5258 C   0  0  2  0  0  0  0  0  0  0  0  0
  -17.9510   58.6699   46.5589 C   0  0  2  0  0  0  0  0  0  0  0  0
  -19.8088   57.1596   46.2416 O   0  0  0  0  0  0  0  0  0  0  0  0
  -18.5818   55.0357   47.5308 O   0  0  0  0  0  0  0  0  0  0  0  0
  -18.0565   56.9362   48.8382 N   0  0  0  0  0  0  0  0  0  0  0  0
  -17.4977   59.1859   45.3311 O   0  0  0  0  0  0  0  0  0  0  0  0
  -16.8355   58.7975   47.6197 C   0  0  1  0  0  0  0  0  0  0  0  0
  -16.3570   60.2507   47.7959 C   0  0  0  0  0  0  0  0  0  0  0  0
  -17.2959   58.1950   48.9711 C   0  0  0  0  0  0  0  0  0  0  0  0
  -15.1913   60.4880   47.0487 O   0  0  0  0  0  0  0  0  0  0  0  0
  -17.9504   56.7858   45.4328 H   0  0  0  0  0  0  0  0  0  0  0  0
  -16.8428   56.0560   47.3621 H   0  0  0  0  0  0  0  0  0  0  0  0
  -18.8168   59.2772   46.9174 H   0  0  0  0  0  0  0  0  0  0  0  0
  -20.0729   57.9661   45.7260 H   0  0  0  0  0  0  0  0  0  0  0  0
  -18.0972   54.4327   46.9093 H   0  0  0  0  0  0  0  0  0  0  0  0
  -19.0706   57.1484   48.9946 H   0  0  0  0  0  0  0  0  0  0  0  0
  -17.8764   60.0998   45.2471 H   0  0  0  0  0  0  0  0  0  0  0  0
  -15.9551   58.2177   47.2607 H   0  0  0  0  0  0  0  0  0  0  0  0
  -17.1617   60.9387   47.4514 H   0  0  0  0  0  0  0  0  0  0  0  0
  -16.1677   60.4641   48.8715 H   0  0  0  0  0  0  0  0  0  0  0  0
  -16.3972   57.9959   49.5933 H   0  0  0  0  0  0  0  0  0  0  0  0
  -17.9129   58.9308   49.5339 H   0  0  0  0  0  0  0  0  0  0  0  0
  -14.4322   60.2317   47.6341 H   0  0  0  0  0  0  0  0  0  0  0  0
  2  1  1  0
  3  1  1  0
  1  4  1  0
  2  5  1  0
  6  2  1  0
  3  7  1  0
  8  3  1  0
  8  9  1  0
 10  8  1  0
 10  6  1  0
 11  9  1  0
  1 12  1  6
  2 13  1  6
  3 14  1  1
  4 15  1  0
  5 16  1  0
  6 17  1  0
  7 18  1  0
  8 19  1  6
  9 20  1  0
  9 21  1  0
 10 22  1  0
 10 23  1  0
 11 24  1  0
M  END
