
     RDKit          3D

 24 24  0  0  0  0  0  0  0  0999 V2000
  -18.5022   56.9199   47.1409 C   0  0  2  0  0  0  0  0  0  0  0  0
  -18.0164   56.0034   48.3012 C   0  0  2  0  0  0  0  0  0  0  0  0
  -18.0470   58.3940   47.3343 C   0  0  2  0  0  0  0  0  0  0  0  0
  -19.9048   56.8837   47.0170 O   0  0  0  0  0  0  0  0  0  0  0  0
  -18.6778   54.7598   48.3061 O   0  0  0  0  0  0  0  0  0  0  0  0
  -18.1525   56.6603   49.6136 N   0  0  0  0  0  0  0  0  0  0  0  0
  -17.5937   58.9100   46.1065 O   0  0  0  0  0  0  0  0  0  0  0  0
  -16.9315   58.5215   48.3950 C   0  0  1  0  0  0  0  0  0  0  0  0
  -16.4531   59.9748   48.5713 C   0  0  0  0  0  0  0  0  0  0  0  0
  -17.3919   57.9191   49.7465 C   0  0  0  0  0  0  0  0  0  0  0  0
  -17.5201   60.8753   48.4159 O   0  0  0  0  0  0  0  0  0  0  0  0
  -18.0465   56.5099   46.2081 H   0  0  0  0  0  0  0  0  0  0  0  0
  -16.9389   55.7801   48.1375 H   0  0  0  0  0  0  0  0  0  0  0  0
  -18.9129   59.0013   47.6928 H   0  0  0  0  0  0  0  0  0  0  0  0
  -20.1074   56.3754   46.1885 H   0  0  0  0  0  0  0  0  0  0  0  0
  -19.2704   54.7353   49.1017 H   0  0  0  0  0  0  0  0  0  0  0  0
  -19.1666   56.8725   49.7700 H   0  0  0  0  0  0  0  0  0  0  0  0
  -18.0321   59.7928   45.9874 H   0  0  0  0  0  0  0  0  0  0  0  0
  -16.0511   57.9418   48.0361 H   0  0  0  0  0  0  0  0  0  0  0  0
  -16.0196   60.0898   49.5903 H   0  0  0  0  0  0  0  0  0  0  0  0
  -15.6515   60.2064   47.8351 H   0  0  0  0  0  0  0  0  0  0  0  0
  -16.4932   57.7200   50.3686 H   0  0  0  0  0  0  0  0  0  0  0  0
  -18.0090   58.6549   50.3092 H   0  0  0  0  0  0  0  0  0  0  0  0
  -17.1188   61.7827   48.4307 H   0  0  0  0  0  0  0  0  0  0  0  0
  2  1  1  0
  3  1  1  0
  1  4  1  0
  2  5  1  0
  6  2  1  0
  3  7  1  0
  8  3  1  0
  8  9  1  0
 10  8  1  0
 10  6  1  0
 11  9  1  0
  1 12  1  6
  2 13  1  6
  3 14  1  1
  4 15  1  0
  5 16  1  0
  6 17  1  0
  7 18  1  0
  8 19  1  6
  9 20  1  0
  9 21  1  0
 10 22  1  0
 10 23  1  0
 11 24  1  0
M  END
