
     RDKit          3D

 32 33  0  0  0  0  0  0  0  0999 V2000
    2.6416    7.3501   57.6082 N   0  0  0  0  0  0  0  0  0  0  0  0
    2.0491    7.4672   58.8228 C   0  0  0  0  0  0  0  0  0  0  0  0
    2.2803    8.6268   59.6110 N   0  0  0  0  0  0  0  0  0  0  0  0
    1.2395    6.4747   59.2873 N   0  0  0  0  0  0  0  0  0  0  0  0
    1.0108    5.3493   58.5567 C   0  0  0  0  0  0  0  0  0  0  0  0
    1.6241    5.2099   57.3081 C   0  0  0  0  0  0  0  0  0  0  0  0
    0.2647    4.4423   59.0178 O   0  0  0  0  0  0  0  0  0  0  0  0
    1.4803    4.0236   56.5192 N   0  0  0  0  0  0  0  0  0  0  0  0
    2.5195    3.7137   55.5308 C   0  0  2  0  0  0  0  0  0  0  0  0
    2.8461    4.9839   54.7078 C   0  0  0  0  0  0  0  0  0  0  0  0
    2.4430    6.2477   56.8454 C   0  0  0  0  0  0  0  0  0  0  0  0
    3.0925    6.1300   55.5822 N   0  0  0  0  0  0  0  0  0  0  0  0
    2.0823    2.5117   54.6591 C   0  0  1  0  0  0  0  0  0  0  0  0
    0.7951    2.7482   54.1440 O   0  0  0  0  0  0  0  0  0  0  0  0
    3.0626    2.2318   53.5016 C   0  0  1  0  0  0  0  0  0  0  0  0
    4.3685    2.1510   54.0135 O   0  0  0  0  0  0  0  0  0  0  0  0
    2.7120    0.9251   52.7859 C   0  0  0  0  0  0  0  0  0  0  0  0
    1.6003    9.4191   59.6092 H   0  0  0  0  0  0  0  0  0  0  0  0
    3.1372    8.6992   60.2032 H   0  0  0  0  0  0  0  0  0  0  0  0
    0.7869    6.5755   60.2244 H   0  0  0  0  0  0  0  0  0  0  0  0
    0.7321    3.3287   56.7442 H   0  0  0  0  0  0  0  0  0  0  0  0
    3.4392    3.4283   56.0889 H   0  0  0  0  0  0  0  0  0  0  0  0
    3.7508    4.8161   54.0865 H   0  0  0  0  0  0  0  0  0  0  0  0
    1.9965    5.2269   54.0343 H   0  0  0  0  0  0  0  0  0  0  0  0
    3.6899    6.9141   55.2358 H   0  0  0  0  0  0  0  0  0  0  0  0
    2.0697    1.6185   55.3310 H   0  0  0  0  0  0  0  0  0  0  0  0
    0.5652    1.9812   53.5571 H   0  0  0  0  0  0  0  0  0  0  0  0
    2.9933    3.0576   52.7558 H   0  0  0  0  0  0  0  0  0  0  0  0
    4.9286    1.7325   53.3084 H   0  0  0  0  0  0  0  0  0  0  0  0
    2.6257    0.0917   53.5155 H   0  0  0  0  0  0  0  0  0  0  0  0
    3.5073    0.6726   52.0529 H   0  0  0  0  0  0  0  0  0  0  0  0
    1.7550    1.0271   52.2320 H   0  0  0  0  0  0  0  0  0  0  0  0
  2  1  2  0
  3  2  1  0
  4  2  1  0
  5  4  1  0
  6  5  1  0
  7  5  2  0
  8  6  1  0
  9  8  1  0
  9 10  1  0
 11  6  2  0
 11  1  1  0
 12 10  1  0
 12 11  1  0
 13  9  1  0
 13 14  1  0
 15 13  1  0
 16 15  1  0
 15 17  1  0
  3 18  1  0
  3 19  1  0
  4 20  1  0
  8 21  1  0
  9 22  1  1
 10 23  1  0
 10 24  1  0
 12 25  1  0
 13 26  1  1
 14 27  1  0
 15 28  1  6
 16 29  1  0
 17 30  1  0
 17 31  1  0
 17 32  1  0
M  END
