
     RDKit          3D

 35 36  0  0  0  0  0  0  0  0999 V2000
   24.6506   -2.1986    8.5139 P   0  0  0  0  0  0  0  0  0  0  0  0
   22.5615   -0.8007    9.0153 C   0  0  0  0  0  0  0  0  0  0  0  0
   23.6334   -1.4490    9.6325 O   0  0  0  0  0  0  0  0  0  0  0  0
   21.7910   -0.0834   10.1326 C   0  0  1  0  0  0  0  0  0  0  0  0
   20.8347    0.7803    9.5654 O   0  0  0  0  0  0  0  0  0  0  0  0
   21.0776   -1.0594   11.0851 C   0  0  1  0  0  0  0  0  0  0  0  0
   21.1072   -0.5794   12.4140 O   0  0  0  0  0  0  0  0  0  0  0  0
   19.6727   -1.0793   10.5307 C   0  0  1  0  0  0  0  0  0  0  0  0
   18.7166   -1.3554   11.5213 O   0  0  0  0  0  0  0  0  0  0  0  0
   19.5636    0.3502    9.9866 C   0  0  2  0  0  0  0  0  0  0  0  0
   18.6015    0.5032    8.8723 N   0  0  0  0  0  0  0  0  0  0  0  0
   19.3599   -1.5717    7.8807 O   0  0  0  0  0  0  0  0  0  0  0  0
   17.6805    1.5272    8.8699 C   0  0  0  0  0  0  0  0  0  0  0  0
   17.6771    2.3989    9.7760 O   0  0  0  0  0  0  0  0  0  0  0  0
   16.7428    1.6113    7.8918 N   0  0  0  0  0  0  0  0  0  0  0  0
   16.6540    0.6743    6.9198 C   0  0  0  0  0  0  0  0  0  0  0  0
   15.7757    0.7789    6.0251 O   0  0  0  0  0  0  0  0  0  0  0  0
   17.5293   -0.4007    6.9179 C   0  0  0  0  0  0  0  0  0  0  0  0
   18.5046   -0.4740    7.9089 C   0  0  0  0  0  0  0  0  0  0  0  0
   23.8965   -2.9943    7.4731 O   0  0  0  0  0  0  0  0  0  0  0  0
   25.5968   -3.2255    9.4479 O   0  0  0  0  0  0  0  0  0  0  0  0
   25.6297   -1.0459    7.7760 O   0  0  0  0  0  0  0  0  0  0  0  0
   22.9281   -0.0468    8.2821 H   0  0  0  0  0  0  0  0  0  0  0  0
   21.9079   -1.5412    8.5097 H   0  0  0  0  0  0  0  0  0  0  0  0
   22.5191    0.5359   10.7036 H   0  0  0  0  0  0  0  0  0  0  0  0
   21.5227   -2.0785   11.0657 H   0  0  0  0  0  0  0  0  0  0  0  0
   20.1965   -0.2869   12.6777 H   0  0  0  0  0  0  0  0  0  0  0  0
   19.6153   -1.8595    9.7438 H   0  0  0  0  0  0  0  0  0  0  0  0
   18.8971   -0.7233   12.2650 H   0  0  0  0  0  0  0  0  0  0  0  0
   19.3108    0.9942   10.8444 H   0  0  0  0  0  0  0  0  0  0  0  0
   20.3526   -1.5172    8.0655 H   0  0  0  0  0  0  0  0  0  0  0  0
   16.0647    2.4079    7.8971 H   0  0  0  0  0  0  0  0  0  0  0  0
   17.4612   -1.1671    6.1548 H   0  0  0  0  0  0  0  0  0  0  0  0
   26.2054   -2.6244    9.9472 H   0  0  0  0  0  0  0  0  0  0  0  0
   25.0149   -0.3061    7.5402 H   0  0  0  0  0  0  0  0  0  0  0  0
  3  2  1  0
  3  1  1  0
  4  2  1  0
  5  4  1  0
  6  4  1  0
  6  7  1  0
  8  6  1  0
  8  9  1  0
 10  8  1  0
 10  5  1  0
 10 11  1  0
 13 11  1  0
 14 13  2  0
 15 13  1  0
 16 15  1  0
 17 16  2  0
 18 16  1  0
 19 18  2  0
 19 12  1  0
 19 11  1  0
 20  1  2  0
 21  1  1  0
 22  1  1  0
  2 23  1  0
  2 24  1  0
  4 25  1  1
  6 26  1  1
  7 27  1  0
  8 28  1  6
  9 29  1  0
 10 30  1  1
 12 31  1  0
 15 32  1  0
 18 33  1  0
 21 34  1  0
 22 35  1  0
M  END
