
     RDKit          3D

 30 31  0  0  0  0  0  0  0  0999 V2000
    9.7108    2.3361   20.9422 C   0  0  1  0  0  0  0  0  0  0  0  0
    7.5281    1.6255   18.2943 N   0  0  0  0  0  0  0  0  0  0  0  0
    9.3794    1.6914   19.7343 O   0  0  0  0  0  0  0  0  0  0  0  0
    8.8537    3.6001   21.0969 C   0  0  1  0  0  0  0  0  0  0  0  0
    6.6328    0.8659   16.2297 N   0  0  0  0  0  0  0  0  0  0  0  0
    9.6394    4.7276   20.7913 O   0  0  0  0  0  0  0  0  0  0  0  0
    7.7726    3.4151   20.0530 C   0  0  0  0  0  0  0  0  0  0  0  0
    5.2715   -0.9439   16.1752 O   0  0  0  0  0  0  0  0  0  0  0  0
    8.4570    2.4973   19.0462 C   0  0  2  0  0  0  0  0  0  0  0  0
    8.0260    2.6458   16.3060 O   0  0  0  0  0  0  0  0  0  0  0  0
    9.5522    1.3454   22.1020 C   0  0  0  0  0  0  0  0  0  0  0  0
    7.4093    1.7382   16.9292 C   0  0  0  0  0  0  0  0  0  0  0  0
    5.9819   -0.1517   16.8529 C   0  0  0  0  0  0  0  0  0  0  0  0
    6.1084   -0.3157   18.2453 C   0  0  0  0  0  0  0  0  0  0  0  0
    6.8955    0.6020   18.9456 C   0  0  0  0  0  0  0  0  0  0  0  0
    5.4082   -1.4259   18.9832 C   0  0  0  0  0  0  0  0  0  0  0  0
    9.8720    0.0608   21.7056 F   0  0  0  0  0  0  0  0  0  0  0  0
   10.7878    2.6142   20.8976 H   0  0  0  0  0  0  0  0  0  0  0  0
    8.4187    3.6959   22.1197 H   0  0  0  0  0  0  0  0  0  0  0  0
    6.5444    0.9735   15.1931 H   0  0  0  0  0  0  0  0  0  0  0  0
    9.8332    4.6820   19.8186 H   0  0  0  0  0  0  0  0  0  0  0  0
    6.8895    2.9228   20.5140 H   0  0  0  0  0  0  0  0  0  0  0  0
    7.4580    4.3747   19.5874 H   0  0  0  0  0  0  0  0  0  0  0  0
    9.0450    3.1479   18.3606 H   0  0  0  0  0  0  0  0  0  0  0  0
    8.5004    1.3558   22.4591 H   0  0  0  0  0  0  0  0  0  0  0  0
   10.2106    1.6414   22.9461 H   0  0  0  0  0  0  0  0  0  0  0  0
    7.0169    0.4842   20.0156 H   0  0  0  0  0  0  0  0  0  0  0  0
    5.8163   -1.5142   20.0122 H   0  0  0  0  0  0  0  0  0  0  0  0
    4.3162   -1.2377   19.0625 H   0  0  0  0  0  0  0  0  0  0  0  0
    5.5676   -2.3840   18.4459 H   0  0  0  0  0  0  0  0  0  0  0  0
  3  1  1  0
  4  1  1  0
  4  6  1  0
  7  4  1  0
  9  7  1  0
  9  3  1  0
  9  2  1  0
  1 11  1  0
 12  5  1  0
 12 10  2  0
 12  2  1  0
 13  8  2  0
 13  5  1  0
 14 13  1  0
 15 14  2  0
 15  2  1  0
 16 14  1  0
 17 11  1  0
  1 18  1  6
  4 19  1  1
  5 20  1  0
  6 21  1  0
  7 22  1  0
  7 23  1  0
  9 24  1  6
 11 25  1  0
 11 26  1  0
 15 27  1  0
 16 28  1  0
 16 29  1  0
 16 30  1  0
M  END
