
     RDKit          3D

 30 31  0  0  0  0  0  0  0  0999 V2000
  -14.1259   10.5237   52.1406 C   0  0  1  0  0  0  0  0  0  0  0  0
  -16.9272    9.8671   54.1642 N   0  0  0  0  0  0  0  0  0  0  0  0
  -15.3847    9.9332   52.3845 O   0  0  0  0  0  0  0  0  0  0  0  0
  -13.9211   11.6948   53.1085 C   0  0  1  0  0  0  0  0  0  0  0  0
  -19.0769    9.1254   54.8565 N   0  0  0  0  0  0  0  0  0  0  0  0
  -14.1031   12.8951   52.4003 O   0  0  0  0  0  0  0  0  0  0  0  0
  -15.0269   11.5117   54.1262 C   0  0  0  0  0  0  0  0  0  0  0  0
  -19.2701    7.3464   56.2501 O   0  0  0  0  0  0  0  0  0  0  0  0
  -16.0648   10.7295   53.3266 C   0  0  2  0  0  0  0  0  0  0  0  0
  -18.8579   10.8583   53.4227 O   0  0  0  0  0  0  0  0  0  0  0  0
  -13.0309    9.4637   52.2644 C   0  0  0  0  0  0  0  0  0  0  0  0
  -18.2995    9.9770   54.1321 C   0  0  0  0  0  0  0  0  0  0  0  0
  -18.5253    8.1365   55.6072 C   0  0  0  0  0  0  0  0  0  0  0  0
  -17.1300    7.9948   55.6582 C   0  0  0  0  0  0  0  0  0  0  0  0
  -16.3502    8.8686   54.8977 C   0  0  0  0  0  0  0  0  0  0  0  0
  -16.4844    6.8955   56.4571 C   0  0  0  0  0  0  0  0  0  0  0  0
  -13.2344    8.6962   53.3952 F   0  0  0  0  0  0  0  0  0  0  0  0
  -14.1123   10.8887   51.0889 H   0  0  0  0  0  0  0  0  0  0  0  0
  -12.9170   11.6802   53.5952 H   0  0  0  0  0  0  0  0  0  0  0  0
  -20.1178    9.2230   54.8215 H   0  0  0  0  0  0  0  0  0  0  0  0
  -13.8009   12.7240   51.4702 H   0  0  0  0  0  0  0  0  0  0  0  0
  -14.6443   10.9256   54.9888 H   0  0  0  0  0  0  0  0  0  0  0  0
  -15.4354   12.4790   54.4923 H   0  0  0  0  0  0  0  0  0  0  0  0
  -16.6709   11.4688   52.7563 H   0  0  0  0  0  0  0  0  0  0  0  0
  -12.0350    9.9514   52.3298 H   0  0  0  0  0  0  0  0  0  0  0  0
  -13.0423    8.8039   51.3711 H   0  0  0  0  0  0  0  0  0  0  0  0
  -15.2746    8.7402   54.8907 H   0  0  0  0  0  0  0  0  0  0  0  0
  -16.8932    5.9150   56.1348 H   0  0  0  0  0  0  0  0  0  0  0  0
  -15.3825    6.8876   56.3166 H   0  0  0  0  0  0  0  0  0  0  0  0
  -16.6893    7.0379   57.5393 H   0  0  0  0  0  0  0  0  0  0  0  0
  3  1  1  0
  4  1  1  0
  4  6  1  0
  7  4  1  0
  9  2  1  0
  9  3  1  0
  9  7  1  0
  1 11  1  0
 12  2  1  0
 12  5  1  0
 12 10  2  0
 13  8  2  0
 13  5  1  0
 14 13  1  0
 15  2  1  0
 15 14  2  0
 16 14  1  0
 17 11  1  0
  1 18  1  6
  4 19  1  1
  5 20  1  0
  6 21  1  0
  7 22  1  0
  7 23  1  0
  9 24  1  6
 11 25  1  0
 11 26  1  0
 15 27  1  0
 16 28  1  0
 16 29  1  0
 16 30  1  0
M  END
