
     RDKit          3D

 49 51  0  0  0  0  0  0  0  0999 V2000
   -6.2641  -46.3048   27.8924 P   0  0  2  0  0  0  0  0  0  0  0  0
   -8.9214  -47.1446   27.6514 P   0  0  2  0  0  0  0  0  0  0  0  0
  -10.6067  -48.8638   29.3263 P   0  0  0  0  0  0  0  0  0  0  0  0
   -4.4554  -48.0469   27.4369 C   0  0  0  0  0  0  0  0  0  0  0  0
   -4.8056  -46.7105   27.1781 O   0  0  0  0  0  0  0  0  0  0  0  0
   -3.0930  -48.2641   26.7746 C   0  0  1  0  0  0  0  0  0  0  0  0
   -3.2673  -48.4572   25.3842 O   0  0  0  0  0  0  0  0  0  0  0  0
   -2.1727  -47.0454   26.9929 C   0  0  1  0  0  0  0  0  0  0  0  0
   -0.8573  -47.4809   27.2286 O   0  0  0  0  0  0  0  0  0  0  0  0
   -2.2783  -46.3151   25.6666 C   0  0  1  0  0  0  0  0  0  0  0  0
   -1.1447  -45.5427   25.3506 O   0  0  0  0  0  0  0  0  0  0  0  0
   -2.5243  -47.4706   24.7045 C   0  0  2  0  0  0  0  0  0  0  0  0
   -2.6684  -47.6086   19.5726 N   0  0  0  0  0  0  0  0  0  0  0  0
   -6.4890  -44.8358   27.6360 O   0  0  0  0  0  0  0  0  0  0  0  0
   -9.1834  -45.9174   28.4916 O   0  0  0  0  0  0  0  0  0  0  0  0
  -10.5175  -50.2040   30.0128 O   0  0  0  0  0  0  0  0  0  0  0  0
   -1.6844  -48.0405   20.4288 C   0  0  0  0  0  0  0  0  0  0  0  0
   -0.5177  -48.6519   19.8984 N   0  0  0  0  0  0  0  0  0  0  0  0
   -6.2251  -46.6569   29.5365 O   0  0  0  0  0  0  0  0  0  0  0  0
   -9.8964  -47.1757   26.2871 O   0  0  0  0  0  0  0  0  0  0  0  0
  -10.8876  -47.6774   30.4749 O   0  0  0  0  0  0  0  0  0  0  0  0
   -1.8096  -47.8910   21.7783 N   0  0  0  0  0  0  0  0  0  0  0  0
   -9.0653  -48.6312   28.5494 N   0  0  0  0  0  0  0  0  0  0  0  0
   -7.3635  -47.2280   27.0317 O   0  0  0  0  0  0  0  0  0  0  0  0
  -11.8684  -48.8708   28.2206 O   0  0  0  0  0  0  0  0  0  0  0  0
   -2.9350  -47.2958   22.2363 C   0  0  0  0  0  0  0  0  0  0  0  0
   -3.9295  -46.8591   21.4216 C   0  0  0  0  0  0  0  0  0  0  0  0
   -3.8057  -47.0165   20.0372 C   0  0  0  0  0  0  0  0  0  0  0  0
   -4.6960  -46.6367   19.2315 O   0  0  0  0  0  0  0  0  0  0  0  0
   -4.9375  -46.3303   22.1559 N   0  0  0  0  0  0  0  0  0  0  0  0
   -4.4927  -46.4763   23.4351 C   0  0  0  0  0  0  0  0  0  0  0  0
   -3.2598  -47.0529   23.5102 N   0  0  0  0  0  0  0  0  0  0  0  0
   -5.2084  -48.7317   26.9894 H   0  0  0  0  0  0  0  0  0  0  0  0
   -4.3518  -48.2699   28.5236 H   0  0  0  0  0  0  0  0  0  0  0  0
   -2.6383  -49.1819   27.2089 H   0  0  0  0  0  0  0  0  0  0  0  0
   -2.5059  -46.3817   27.8262 H   0  0  0  0  0  0  0  0  0  0  0  0
   -0.8213  -47.7685   28.1782 H   0  0  0  0  0  0  0  0  0  0  0  0
   -3.1555  -45.6350   25.6933 H   0  0  0  0  0  0  0  0  0  0  0  0
   -0.5624  -46.0671   24.7419 H   0  0  0  0  0  0  0  0  0  0  0  0
   -1.5528  -47.9261   24.4064 H   0  0  0  0  0  0  0  0  0  0  0  0
   -2.5470  -47.7375   18.5422 H   0  0  0  0  0  0  0  0  0  0  0  0
   -0.5603  -49.1708   18.9932 H   0  0  0  0  0  0  0  0  0  0  0  0
    0.3949  -48.5925   20.4022 H   0  0  0  0  0  0  0  0  0  0  0  0
   -5.4642  -46.1300   29.8891 H   0  0  0  0  0  0  0  0  0  0  0  0
   -9.6898  -46.3333   25.8089 H   0  0  0  0  0  0  0  0  0  0  0  0
   -9.9901  -47.3264   30.7035 H   0  0  0  0  0  0  0  0  0  0  0  0
   -8.3444  -48.6020   29.3050 H   0  0  0  0  0  0  0  0  0  0  0  0
  -11.5942  -49.5238   27.5282 H   0  0  0  0  0  0  0  0  0  0  0  0
   -5.0750  -46.1828   24.2980 H   0  0  0  0  0  0  0  0  0  0  0  0
  1  5  1  6
  5  4  1  0
  6  4  1  0
  7  6  1  0
  8  6  1  0
  8  9  1  0
 10  8  1  0
 10 11  1  0
 12 10  1  0
 12  7  1  0
 14  1  2  0
 15  2  2  0
 16  3  2  0
 17 13  1  0
 18 17  1  0
 19  1  1  0
  2 20  1  6
 21  3  1  0
 22 17  2  0
 23  3  1  0
 23  2  1  0
 24  1  1  0
 24  2  1  0
 25  3  1  0
 26 22  1  0
 27 26  2  0
 28 27  1  0
 28 13  1  0
 29 28  2  0
 30 27  1  0
 31 30  2  0
 32 26  1  0
 32 31  1  0
 12 32  1  0
  4 33  1  0
  4 34  1  0
  6 35  1  1
  8 36  1  1
  9 37  1  0
 10 38  1  1
 11 39  1  0
 12 40  1  6
 13 41  1  0
 18 42  1  0
 18 43  1  0
 19 44  1  0
 20 45  1  0
 21 46  1  0
 23 47  1  0
 25 48  1  0
 31 49  1  0
M  END
