
     RDKit          3D

 23 24  0  0  0  0  0  0  0  0999 V2000
   39.6093   -2.8384   35.7495 O   0  0  0  0  0  0  0  0  0  0  0  0
   38.4876   -3.1474   35.2672 C   0  0  0  0  0  0  0  0  0  0  0  0
   38.0560   -4.4607   35.3234 O   0  0  0  0  0  0  0  0  0  0  0  0
   37.6598   -2.1389   34.5136 C   0  0  1  0  0  0  0  0  0  0  0  0
   38.0519   -0.6850   34.8344 C   0  0  2  0  0  0  0  0  0  0  0  0
   36.9536    0.2616   34.3355 C   0  0  0  0  0  0  0  0  0  0  0  0
   39.1069   -0.4381   33.9496 O   0  0  0  0  0  0  0  0  0  0  0  0
   37.9090   -2.1515   32.9880 C   0  0  2  0  0  0  0  0  0  0  0  0
   38.9525   -3.1280   32.5227 C   0  0  0  0  0  0  0  0  0  0  0  0
   38.6690   -4.3449   32.3619 O   0  0  0  0  0  0  0  0  0  0  0  0
   40.2369   -2.6847   32.2772 O   0  0  0  0  0  0  0  0  0  0  0  0
   38.4057   -0.7140   32.7709 C   0  0  1  0  0  0  0  0  0  0  0  0
   37.2260    0.2558   32.8356 C   0  0  0  0  0  0  0  0  0  0  0  0
   38.1656   -5.0787   34.5282 H   0  0  0  0  0  0  0  0  0  0  0  0
   36.5872   -2.3278   34.7419 H   0  0  0  0  0  0  0  0  0  0  0  0
   38.3278   -0.5019   35.8956 H   0  0  0  0  0  0  0  0  0  0  0  0
   35.9297   -0.0974   34.5794 H   0  0  0  0  0  0  0  0  0  0  0  0
   37.1046    1.2801   34.7552 H   0  0  0  0  0  0  0  0  0  0  0  0
   36.9615   -2.3428   32.4357 H   0  0  0  0  0  0  0  0  0  0  0  0
   40.4940   -2.3106   31.3716 H   0  0  0  0  0  0  0  0  0  0  0  0
   39.0290   -0.5719   31.8606 H   0  0  0  0  0  0  0  0  0  0  0  0
   36.3485   -0.0923   32.2480 H   0  0  0  0  0  0  0  0  0  0  0  0
   37.5380    1.2655   32.4895 H   0  0  0  0  0  0  0  0  0  0  0  0
  2  1  2  0
  3  2  1  0
  4  2  1  0
  5  4  1  0
  5  6  1  0
  7  5  1  0
  8  4  1  0
  8  9  1  0
 10  9  2  0
 11  9  1  0
 12  8  1  0
 12  7  1  0
 13  6  1  0
 12 13  1  0
  3 14  1  0
  4 15  1  6
  5 16  1  1
  6 17  1  0
  6 18  1  0
  8 19  1  6
 11 20  1  0
 12 21  1  6
 13 22  1  0
 13 23  1  0
M  END
