
     RDKit          3D

 32 34  0  0  0  0  0  0  0  0999 V2000
  -22.6788  -24.6226   80.6568 C   0  0  0  0  0  0  0  0  0  0  0  0
  -23.7212  -25.3206   81.2861 O   0  0  0  0  0  0  0  0  0  0  0  0
  -21.6561  -25.6072   80.0636 C   0  0  1  0  0  0  0  0  0  0  0  0
  -22.2833  -26.4503   79.1257 O   0  0  0  0  0  0  0  0  0  0  0  0
  -20.4704  -24.9060   79.3930 C   0  0  1  0  0  0  0  0  0  0  0  0
  -19.2554  -25.4347   79.8780 O   0  0  0  0  0  0  0  0  0  0  0  0
  -20.6618  -25.1909   77.9026 C   0  0  1  0  0  0  0  0  0  0  0  0
  -19.6183  -25.9855   77.3911 O   0  0  0  0  0  0  0  0  0  0  0  0
  -21.9649  -25.9890   77.8375 C   0  0  2  0  0  0  0  0  0  0  0  0
  -24.5862  -21.5324   76.9193 N   0  0  0  0  0  0  0  0  0  0  0  0
  -23.3187  -21.6583   77.4283 C   0  0  0  0  0  0  0  0  0  0  0  0
  -22.7432  -22.8877   77.5788 N   0  0  0  0  0  0  0  0  0  0  0  0
  -23.4674  -23.9730   77.2109 C   0  0  0  0  0  0  0  0  0  0  0  0
  -24.7227  -23.8666   76.7046 C   0  0  0  0  0  0  0  0  0  0  0  0
  -25.3125  -22.6228   76.5516 C   0  0  0  0  0  0  0  0  0  0  0  0
  -26.6253  -22.4657   76.0262 N   0  0  0  0  0  0  0  0  0  0  0  0
  -25.2307  -25.0751   76.4261 N   0  0  0  0  0  0  0  0  0  0  0  0
  -24.2249  -25.9081   76.7878 C   0  0  0  0  0  0  0  0  0  0  0  0
  -23.1207  -25.2748   77.2663 N   0  0  0  0  0  0  0  0  0  0  0  0
  -22.1740  -23.9477   81.3852 H   0  0  0  0  0  0  0  0  0  0  0  0
  -23.1157  -23.9854   79.8688 H   0  0  0  0  0  0  0  0  0  0  0  0
  -24.4841  -24.6891   81.3559 H   0  0  0  0  0  0  0  0  0  0  0  0
  -21.2896  -26.2451   80.8985 H   0  0  0  0  0  0  0  0  0  0  0  0
  -20.4943  -23.8028   79.5600 H   0  0  0  0  0  0  0  0  0  0  0  0
  -19.0474  -26.2262   79.3158 H   0  0  0  0  0  0  0  0  0  0  0  0
  -20.7215  -24.2520   77.3119 H   0  0  0  0  0  0  0  0  0  0  0  0
  -19.3850  -25.6119   76.5010 H   0  0  0  0  0  0  0  0  0  0  0  0
  -21.7917  -26.8885   77.2041 H   0  0  0  0  0  0  0  0  0  0  0  0
  -22.7672  -20.7729   77.7125 H   0  0  0  0  0  0  0  0  0  0  0  0
  -27.3295  -23.2288   76.1357 H   0  0  0  0  0  0  0  0  0  0  0  0
  -26.9039  -21.5922   75.5263 H   0  0  0  0  0  0  0  0  0  0  0  0
  -24.3084  -26.9855   76.7191 H   0  0  0  0  0  0  0  0  0  0  0  0
  2  1  1  0
  3  1  1  0
  4  3  1  0
  5  3  1  0
  5  6  1  0
  7  5  1  0
  7  8  1  0
  9  7  1  0
  9  4  1  0
 11 10  2  0
 12 11  1  0
 13 12  2  0
 14 13  1  0
 15 14  2  0
 15 10  1  0
 16 15  1  0
 17 14  1  0
 18 17  2  0
 19 18  1  0
 19 13  1  0
  9 19  1  0
  1 20  1  0
  1 21  1  0
  2 22  1  0
  3 23  1  1
  5 24  1  6
  6 25  1  0
  7 26  1  6
  8 27  1  0
  9 28  1  6
 11 29  1  0
 16 30  1  0
 16 31  1  0
 18 32  1  0
M  END
