
     RDKit          3D

 32 34  0  0  0  0  0  0  0  0999 V2000
   -0.4785   25.2887   80.3766 C   0  0  0  0  0  0  0  0  0  0  0  0
    0.5731   25.9790   81.0001 O   0  0  0  0  0  0  0  0  0  0  0  0
   -1.4794   26.2750   79.7483 C   0  0  1  0  0  0  0  0  0  0  0  0
   -1.0239   26.6900   78.4806 O   0  0  0  0  0  0  0  0  0  0  0  0
   -2.8892   25.6920   79.6153 C   0  0  1  0  0  0  0  0  0  0  0  0
   -3.8175   26.5636   80.2206 O   0  0  0  0  0  0  0  0  0  0  0  0
   -3.1019   25.5711   78.1047 C   0  0  1  0  0  0  0  0  0  0  0  0
   -4.1508   26.3984   77.6481 O   0  0  0  0  0  0  0  0  0  0  0  0
   -1.7690   26.0194   77.4968 C   0  0  2  0  0  0  0  0  0  0  0  0
   -0.1857   21.0194   77.3153 N   0  0  0  0  0  0  0  0  0  0  0  0
   -1.2213   21.5337   78.0536 C   0  0  0  0  0  0  0  0  0  0  0  0
   -1.5476   22.8580   77.9758 N   0  0  0  0  0  0  0  0  0  0  0  0
   -0.8169   23.6387   77.1434 C   0  0  0  0  0  0  0  0  0  0  0  0
    0.2094   23.1458   76.4037 C   0  0  0  0  0  0  0  0  0  0  0  0
    0.5483   21.8062   76.4824 C   0  0  0  0  0  0  0  0  0  0  0  0
    1.6180   21.2498   75.7264 N   0  0  0  0  0  0  0  0  0  0  0  0
    0.7801   24.1121   75.6713 N   0  0  0  0  0  0  0  0  0  0  0  0
    0.0498   25.2036   76.0049 C   0  0  0  0  0  0  0  0  0  0  0  0
   -0.9472   24.9565   76.8961 N   0  0  0  0  0  0  0  0  0  0  0  0
   -0.0463   24.6296   79.6009 H   0  0  0  0  0  0  0  0  0  0  0  0
   -1.0007   24.6369   81.1137 H   0  0  0  0  0  0  0  0  0  0  0  0
    1.2266   26.2031   80.2871 H   0  0  0  0  0  0  0  0  0  0  0  0
   -1.5087   27.1734   80.4045 H   0  0  0  0  0  0  0  0  0  0  0  0
   -2.9524   24.6842   80.0909 H   0  0  0  0  0  0  0  0  0  0  0  0
   -3.3990   27.4639   80.2220 H   0  0  0  0  0  0  0  0  0  0  0  0
   -3.3586   24.5307   77.8252 H   0  0  0  0  0  0  0  0  0  0  0  0
   -4.5263   26.0008   76.8180 H   0  0  0  0  0  0  0  0  0  0  0  0
   -1.9827   26.7566   76.6901 H   0  0  0  0  0  0  0  0  0  0  0  0
   -1.7851   20.8832   78.7077 H   0  0  0  0  0  0  0  0  0  0  0  0
    1.4237   20.5398   74.9860 H   0  0  0  0  0  0  0  0  0  0  0  0
    2.6064   21.5397   75.8982 H   0  0  0  0  0  0  0  0  0  0  0  0
    0.2611   26.1886   75.6081 H   0  0  0  0  0  0  0  0  0  0  0  0
  2  1  1  0
  3  1  1  0
  4  3  1  0
  5  3  1  0
  5  6  1  0
  7  5  1  0
  7  8  1  0
  9  7  1  0
  9  4  1  0
 11 10  2  0
 12 11  1  0
 13 12  2  0
 14 13  1  0
 15 10  1  0
 15 14  2  0
 16 15  1  0
 17 14  1  0
 18 17  2  0
 19 18  1  0
 19 13  1  0
  9 19  1  0
  1 20  1  0
  1 21  1  0
  2 22  1  0
  3 23  1  1
  5 24  1  1
  6 25  1  0
  7 26  1  1
  8 27  1  0
  9 28  1  6
 11 29  1  0
 16 30  1  0
 16 31  1  0
 18 32  1  0
M  END
