
     RDKit          3D

 32 34  0  0  0  0  0  0  0  0999 V2000
  -20.9776   19.7167   89.1897 C   0  0  0  0  0  0  0  0  0  0  0  0
  -21.9915   20.6239   89.5358 O   0  0  0  0  0  0  0  0  0  0  0  0
  -19.9347   19.6253   90.3168 C   0  0  1  0  0  0  0  0  0  0  0  0
  -20.5756   19.4907   91.5659 O   0  0  0  0  0  0  0  0  0  0  0  0
  -18.9520   18.4668   90.1231 C   0  0  1  0  0  0  0  0  0  0  0  0
  -17.6321   18.9597   90.1723 O   0  0  0  0  0  0  0  0  0  0  0  0
  -19.2602   17.5182   91.2832 C   0  0  1  0  0  0  0  0  0  0  0  0
  -18.1766   17.4140   92.1813 O   0  0  0  0  0  0  0  0  0  0  0  0
  -20.4680   18.1519   91.9794 C   0  0  2  0  0  0  0  0  0  0  0  0
  -23.6497   15.3069   88.9492 N   0  0  0  0  0  0  0  0  0  0  0  0
  -22.3139   15.5485   88.7518 C   0  0  0  0  0  0  0  0  0  0  0  0
  -21.5915   16.2703   89.6574 N   0  0  0  0  0  0  0  0  0  0  0  0
  -22.2389   16.7292   90.7560 C   0  0  0  0  0  0  0  0  0  0  0  0
  -23.5584   16.4977   90.9684 C   0  0  0  0  0  0  0  0  0  0  0  0
  -24.2972   15.7745   90.0510 C   0  0  0  0  0  0  0  0  0  0  0  0
  -25.6860   15.5263   90.2320 N   0  0  0  0  0  0  0  0  0  0  0  0
  -23.9706   17.0684   92.1083 N   0  0  0  0  0  0  0  0  0  0  0  0
  -22.8391   17.6549   92.5672 C   0  0  0  0  0  0  0  0  0  0  0  0
  -21.7520   17.4654   91.7720 N   0  0  0  0  0  0  0  0  0  0  0  0
  -20.4793   20.0805   88.2659 H   0  0  0  0  0  0  0  0  0  0  0  0
  -21.4150   18.7250   88.9555 H   0  0  0  0  0  0  0  0  0  0  0  0
  -22.5843   20.1584   90.1823 H   0  0  0  0  0  0  0  0  0  0  0  0
  -19.3802   20.5903   90.3282 H   0  0  0  0  0  0  0  0  0  0  0  0
  -19.1261   17.9490   89.1498 H   0  0  0  0  0  0  0  0  0  0  0  0
  -17.0910   18.2697   90.6378 H   0  0  0  0  0  0  0  0  0  0  0  0
  -19.4786   16.4971   90.9136 H   0  0  0  0  0  0  0  0  0  0  0  0
  -18.0740   16.4600   92.4409 H   0  0  0  0  0  0  0  0  0  0  0  0
  -20.2781   18.1599   93.0764 H   0  0  0  0  0  0  0  0  0  0  0  0
  -21.8276   15.1658   87.8652 H   0  0  0  0  0  0  0  0  0  0  0  0
  -26.3299   16.3086   90.4842 H   0  0  0  0  0  0  0  0  0  0  0  0
  -26.0821   14.5670   90.1166 H   0  0  0  0  0  0  0  0  0  0  0  0
  -22.8162   18.2474   93.4732 H   0  0  0  0  0  0  0  0  0  0  0  0
  2  1  1  0
  3  1  1  0
  4  3  1  0
  5  3  1  0
  5  6  1  0
  7  5  1  0
  7  8  1  0
  9  7  1  0
  9  4  1  0
 11 10  2  0
 12 11  1  0
 13 12  2  0
 14 13  1  0
 15 10  1  0
 15 14  2  0
 16 15  1  0
 17 14  1  0
 18 17  2  0
 19 18  1  0
 19 13  1  0
  9 19  1  0
  1 20  1  0
  1 21  1  0
  2 22  1  0
  3 23  1  1
  5 24  1  6
  6 25  1  0
  7 26  1  6
  8 27  1  0
  9 28  1  1
 11 29  1  0
 16 30  1  0
 16 31  1  0
 18 32  1  0
M  END
