
     RDKit          3D

 57 60  0  0  0  0  0  0  0  0999 V2000
   -1.2987   14.5203  -23.1228 C   0  0  0  0  0  0  0  0  0  0  0  0
   -2.0735   14.6315  -21.9639 C   0  0  0  0  0  0  0  0  0  0  0  0
   -3.3123   14.2125  -24.4349 C   0  0  0  0  0  0  0  0  0  0  0  0
   -3.4634   14.5253  -22.0371 C   0  0  0  0  0  0  0  0  0  0  0  0
   -4.0985   14.3285  -23.2751 C   0  0  0  0  0  0  0  0  0  0  0  0
   -5.6007   14.1742  -23.3491 C   0  0  0  0  0  0  0  0  0  0  0  0
   -6.3399   15.3889  -22.7602 C   0  0  0  0  0  0  0  0  0  0  0  0
   -7.8313   15.3871  -23.1277 C   0  0  0  0  0  0  0  0  0  0  0  0
   -1.9197   14.3089  -24.3568 C   0  0  0  0  0  0  0  0  0  0  0  0
    0.0870   14.6133  -23.0558 O   0  0  0  0  0  0  0  0  0  0  0  0
  -10.0993   14.2021  -22.9116 P   0  0  2  0  0  0  0  0  0  0  0  0
  -10.7570   13.1962  -21.9846 O   0  0  0  0  0  0  0  0  0  0  0  0
   -8.4263   14.2238  -22.5994 O   0  0  0  0  0  0  0  0  0  0  0  0
  -10.7707   15.7259  -22.6340 O   0  0  0  0  0  0  0  0  0  0  0  0
   -9.8106   12.5709  -24.8662 C   0  0  0  0  0  0  0  0  0  0  0  0
  -10.4109   13.7997  -24.5325 O   0  0  0  0  0  0  0  0  0  0  0  0
  -10.0037   12.3598  -26.3711 C   0  0  1  0  0  0  0  0  0  0  0  0
   -9.2777   13.3157  -27.1215 O   0  0  0  0  0  0  0  0  0  0  0  0
   -9.5493   10.9919  -26.8576 C   0  0  1  0  0  0  0  0  0  0  0  0
  -10.4414    9.9496  -26.5481 O   0  0  0  0  0  0  0  0  0  0  0  0
   -9.4446   11.2632  -28.3372 C   0  0  1  0  0  0  0  0  0  0  0  0
  -10.7265   11.2937  -28.9252 O   0  0  0  0  0  0  0  0  0  0  0  0
   -8.8612   12.6759  -28.3210 C   0  0  2  0  0  0  0  0  0  0  0  0
   -4.6740   12.1547  -31.3063 N   0  0  0  0  0  0  0  0  0  0  0  0
   -5.9914   12.1398  -31.6706 C   0  0  0  0  0  0  0  0  0  0  0  0
   -6.9719   12.2799  -30.7292 N   0  0  0  0  0  0  0  0  0  0  0  0
   -6.6024   12.4310  -29.4332 C   0  0  0  0  0  0  0  0  0  0  0  0
   -5.3075   12.4480  -29.0476 C   0  0  0  0  0  0  0  0  0  0  0  0
   -4.3038   12.3058  -30.0024 C   0  0  0  0  0  0  0  0  0  0  0  0
   -2.9290   12.3155  -29.6499 N   0  0  0  0  0  0  0  0  0  0  0  0
   -5.2141   12.6334  -27.7147 N   0  0  0  0  0  0  0  0  0  0  0  0
   -6.5194   12.7048  -27.3207 C   0  0  0  0  0  0  0  0  0  0  0  0
   -7.3937   12.6137  -28.3639 N   0  0  0  0  0  0  0  0  0  0  0  0
   -1.5990   14.7859  -21.0031 H   0  0  0  0  0  0  0  0  0  0  0  0
   -3.7753   14.0424  -25.3992 H   0  0  0  0  0  0  0  0  0  0  0  0
   -4.0401   14.5812  -21.1231 H   0  0  0  0  0  0  0  0  0  0  0  0
   -5.8888   13.2552  -22.7944 H   0  0  0  0  0  0  0  0  0  0  0  0
   -5.9185   14.0419  -24.4053 H   0  0  0  0  0  0  0  0  0  0  0  0
   -5.8786   16.3206  -23.1549 H   0  0  0  0  0  0  0  0  0  0  0  0
   -6.2490   15.4014  -21.6532 H   0  0  0  0  0  0  0  0  0  0  0  0
   -7.9440   15.4176  -24.2352 H   0  0  0  0  0  0  0  0  0  0  0  0
   -8.2878   16.2995  -22.6847 H   0  0  0  0  0  0  0  0  0  0  0  0
   -1.3233   14.2180  -25.2558 H   0  0  0  0  0  0  0  0  0  0  0  0
    0.5516   15.0577  -22.2725 H   0  0  0  0  0  0  0  0  0  0  0  0
  -10.6968   16.1978  -23.5019 H   0  0  0  0  0  0  0  0  0  0  0  0
  -10.3019   11.7402  -24.3121 H   0  0  0  0  0  0  0  0  0  0  0  0
   -8.7199   12.5823  -24.6420 H   0  0  0  0  0  0  0  0  0  0  0  0
  -11.0875   12.5036  -26.5914 H   0  0  0  0  0  0  0  0  0  0  0  0
   -8.5455   10.7417  -26.4459 H   0  0  0  0  0  0  0  0  0  0  0  0
  -11.3518   10.2035  -26.8503 H   0  0  0  0  0  0  0  0  0  0  0  0
   -8.7769   10.5323  -28.8518 H   0  0  0  0  0  0  0  0  0  0  0  0
  -10.8556   12.2125  -29.2780 H   0  0  0  0  0  0  0  0  0  0  0  0
   -9.2271   13.2609  -29.1935 H   0  0  0  0  0  0  0  0  0  0  0  0
   -6.2595   12.0179  -32.7109 H   0  0  0  0  0  0  0  0  0  0  0  0
   -2.6296   12.4305  -28.6560 H   0  0  0  0  0  0  0  0  0  0  0  0
   -2.1967   12.2070  -30.3863 H   0  0  0  0  0  0  0  0  0  0  0  0
   -6.8203   12.8450  -26.2920 H   0  0  0  0  0  0  0  0  0  0  0  0
  2  1  2  0
  4  2  1  0
  5  4  2  0
  5  3  1  0
  6  5  1  0
  7  6  1  0
  8  7  1  0
  9  3  2  0
  9  1  1  0
 10  1  1  0
 12 11  2  0
 11 13  1  6
 13  8  1  0
 14 11  1  0
 16 15  1  0
 16 11  1  0
 17 15  1  0
 18 17  1  0
 19 17  1  0
 19 20  1  0
 21 19  1  0
 21 22  1  0
 23 21  1  0
 23 18  1  0
 25 24  2  0
 26 25  1  0
 27 26  2  0
 28 27  1  0
 29 28  2  0
 29 24  1  0
 30 29  1  0
 31 28  1  0
 32 31  2  0
 33 27  1  0
 23 33  1  0
 33 32  1  0
  2 34  1  0
  3 35  1  0
  4 36  1  0
  6 37  1  0
  6 38  1  0
  7 39  1  0
  7 40  1  0
  8 41  1  0
  8 42  1  0
  9 43  1  0
 10 44  1  0
 14 45  1  0
 15 46  1  0
 15 47  1  0
 17 48  1  1
 19 49  1  1
 20 50  1  0
 21 51  1  6
 22 52  1  0
 23 53  1  6
 25 54  1  0
 30 55  1  0
 30 56  1  0
 32 57  1  0
M  END
