
     RDKit          3D

 82 86  0  0  0  0  0  0  0  0999 V2000
   11.2585   23.9831    6.1637 N   0  0  0  0  0  0  0  0  0  0  0  0
   11.8257   22.4015    6.5747 S   0  0  0  0  0  0  0  0  0  0  0  0
   13.5273   22.3566    6.3503 N   0  0  0  0  0  0  0  0  0  0  0  0
   13.8957   22.3935    4.9200 C   0  0  1  0  0  0  0  0  0  0  0  0
   14.0338   23.8077    4.2700 C   0  0  1  0  0  0  0  0  0  0  0  0
   13.0123   24.8947    4.7081 C   0  0  2  0  0  0  0  0  0  0  0  0
   11.5139   24.5094    4.8070 C   0  0  1  0  0  0  0  0  0  0  0  0
    9.9381   24.2610    6.7206 C   0  0  0  0  0  0  0  0  0  0  0  0
    9.8593   25.6176    7.3543 C   0  0  0  0  0  0  0  0  0  0  0  0
    8.7118   26.3900    7.1344 C   0  0  0  0  0  0  0  0  0  0  0  0
    8.5119   27.5872    7.8333 C   0  0  0  0  0  0  0  0  0  0  0  0
    9.4812   28.0180    8.7586 C   0  0  0  0  0  0  0  0  0  0  0  0
   10.6305   27.2504    8.9857 C   0  0  0  0  0  0  0  0  0  0  0  0
   10.8204   26.0499    8.2882 C   0  0  0  0  0  0  0  0  0  0  0  0
   11.1679   21.3336    5.7449 O   0  0  0  0  0  0  0  0  0  0  0  0
   14.9407   20.6100    3.6076 O   0  0  0  0  0  0  0  0  0  0  0  0
   15.9143   19.6622    3.2643 C   0  0  0  0  0  0  0  0  0  0  0  0
   17.0901   19.4907    4.0326 C   0  0  0  0  0  0  0  0  0  0  0  0
   18.0730   18.5842    3.6304 C   0  0  0  0  0  0  0  0  0  0  0  0
   17.8976   17.8365    2.4631 C   0  0  0  0  0  0  0  0  0  0  0  0
   16.7307   17.9865    1.7032 C   0  0  0  0  0  0  0  0  0  0  0  0
   15.7368   18.8889    2.1079 C   0  0  0  0  0  0  0  0  0  0  0  0
   14.3072   23.1132    7.3601 C   0  0  0  0  0  0  0  0  0  0  0  0
   15.2402   22.2066    8.1521 C   0  0  0  0  0  0  0  0  0  0  0  0
   14.7439   21.3048    9.1178 C   0  0  0  0  0  0  0  0  0  0  0  0
   15.6246   20.4983    9.8593 C   0  0  0  0  0  0  0  0  0  0  0  0
   17.0067   20.5870    9.6492 C   0  0  0  0  0  0  0  0  0  0  0  0
   17.5110   21.4830    8.6997 C   0  0  0  0  0  0  0  0  0  0  0  0
   16.6348   22.2874    7.9562 C   0  0  0  0  0  0  0  0  0  0  0  0
   15.3541   24.2889    4.4114 O   0  0  0  0  0  0  0  0  0  0  0  0
   13.1815   26.0362    3.9050 O   0  0  0  0  0  0  0  0  0  0  0  0
   10.9072   23.6812    3.6382 C   0  0  0  0  0  0  0  0  0  0  0  0
    9.4765   23.6476    3.7033 O   0  0  0  0  0  0  0  0  0  0  0  0
    8.6160   24.5893    3.1135 C   0  0  0  0  0  0  0  0  0  0  0  0
    7.7508   24.2644    2.0467 C   0  0  0  0  0  0  0  0  0  0  0  0
    6.8824   25.2289    1.5209 C   0  0  0  0  0  0  0  0  0  0  0  0
    6.8582   26.5200    2.0584 C   0  0  0  0  0  0  0  0  0  0  0  0
    7.7146   26.8534    3.1135 C   0  0  0  0  0  0  0  0  0  0  0  0
    8.5990   25.8957    3.6295 C   0  0  0  0  0  0  0  0  0  0  0  0
   11.5511   22.1535    8.0282 O   0  0  0  0  0  0  0  0  0  0  0  0
   15.1133   21.4861    4.7204 C   0  0  0  0  0  0  0  0  0  0  0  0
    7.3013   28.3924    7.5833 C   0  0  0  0  0  0  0  0  0  0  0  0
    6.4930   28.0360    6.6843 O   0  0  0  0  0  0  0  0  0  0  0  0
    7.0394   29.5765    8.3431 N   0  0  0  0  0  0  0  0  0  0  0  0
    5.8469   30.3707    8.0896 C   0  0  0  0  0  0  0  0  0  0  0  0
   13.1055   21.8723    4.3505 H   0  0  0  0  0  0  0  0  0  0  0  0
   13.8799   23.6499    3.1793 H   0  0  0  0  0  0  0  0  0  0  0  0
   13.3001   25.2203    5.7317 H   0  0  0  0  0  0  0  0  0  0  0  0
   10.9936   25.4899    4.7636 H   0  0  0  0  0  0  0  0  0  0  0  0
    9.1482   24.1307    5.9601 H   0  0  0  0  0  0  0  0  0  0  0  0
    9.6577   23.5381    7.5146 H   0  0  0  0  0  0  0  0  0  0  0  0
    7.9736   26.0593    6.4135 H   0  0  0  0  0  0  0  0  0  0  0  0
    9.3444   28.9411    9.3082 H   0  0  0  0  0  0  0  0  0  0  0  0
   11.3681   27.5799    9.7059 H   0  0  0  0  0  0  0  0  0  0  0  0
   11.6961   25.4457    8.4906 H   0  0  0  0  0  0  0  0  0  0  0  0
   17.2746   20.0536    4.9347 H   0  0  0  0  0  0  0  0  0  0  0  0
   18.9733   18.4640    4.2192 H   0  0  0  0  0  0  0  0  0  0  0  0
   18.6617   17.1375    2.1486 H   0  0  0  0  0  0  0  0  0  0  0  0
   16.5952   17.4032    0.8016 H   0  0  0  0  0  0  0  0  0  0  0  0
   14.8422   19.0064    1.5097 H   0  0  0  0  0  0  0  0  0  0  0  0
   13.6397   23.6375    8.0776 H   0  0  0  0  0  0  0  0  0  0  0  0
   14.8974   23.9149    6.8852 H   0  0  0  0  0  0  0  0  0  0  0  0
   13.6802   21.2294    9.2978 H   0  0  0  0  0  0  0  0  0  0  0  0
   15.2340   19.8085   10.5962 H   0  0  0  0  0  0  0  0  0  0  0  0
   17.6832   19.9655   10.2214 H   0  0  0  0  0  0  0  0  0  0  0  0
   18.5787   21.5534    8.5370 H   0  0  0  0  0  0  0  0  0  0  0  0
   17.0452   22.9720    7.2244 H   0  0  0  0  0  0  0  0  0  0  0  0
   15.3961   25.0601    5.0330 H   0  0  0  0  0  0  0  0  0  0  0  0
   12.2950   26.4738    3.8178 H   0  0  0  0  0  0  0  0  0  0  0  0
   11.2598   22.6413    3.6487 H   0  0  0  0  0  0  0  0  0  0  0  0
   11.2294   24.0996    2.6610 H   0  0  0  0  0  0  0  0  0  0  0  0
    7.7145   23.2685    1.6327 H   0  0  0  0  0  0  0  0  0  0  0  0
    6.2177   24.9710    0.7065 H   0  0  0  0  0  0  0  0  0  0  0  0
    6.1796   27.2613    1.6567 H   0  0  0  0  0  0  0  0  0  0  0  0
    7.6990   27.8534    3.5271 H   0  0  0  0  0  0  0  0  0  0  0  0
    9.2570   26.1614    4.4471 H   0  0  0  0  0  0  0  0  0  0  0  0
   15.2173   20.8563    5.6289 H   0  0  0  0  0  0  0  0  0  0  0  0
   16.0627   22.0497    4.6127 H   0  0  0  0  0  0  0  0  0  0  0  0
    7.7329   29.9207    9.0444 H   0  0  0  0  0  0  0  0  0  0  0  0
    4.9397   29.7640    8.2945 H   0  0  0  0  0  0  0  0  0  0  0  0
    5.8392   31.2608    8.7536 H   0  0  0  0  0  0  0  0  0  0  0  0
    5.8368   30.7129    7.0332 H   0  0  0  0  0  0  0  0  0  0  0  0
  2  1  1  0
  3  2  1  0
  4  3  1  0
  5  4  1  0
  6  5  1  0
  7  6  1  0
  7  1  1  0
  8  1  1  0
  9  8  1  0
 10  9  2  0
 11 10  1  0
 12 11  2  0
 13 12  1  0
 14 13  2  0
 14  9  1  0
 15  2  2  0
 17 16  1  0
 18 17  2  0
 19 18  1  0
 20 19  2  0
 21 20  1  0
 22 17  1  0
 22 21  2  0
 23  3  1  0
 24 23  1  0
 25 24  2  0
 26 25  1  0
 27 26  2  0
 28 27  1  0
 29 24  1  0
 29 28  2  0
  5 30  1  0
  6 31  1  0
  7 32  1  0
 33 32  1  0
 34 33  1  0
 35 34  2  0
 36 35  1  0
 37 36  2  0
 38 37  1  0
 39 38  2  0
 39 34  1  0
 40  2  2  0
 41 16  1  0
  4 41  1  0
 42 11  1  0
 43 42  2  0
 44 42  1  0
 45 44  1  0
  4 46  1  6
  5 47  1  6
  6 48  1  1
  7 49  1  1
  8 50  1  0
  8 51  1  0
 10 52  1  0
 12 53  1  0
 13 54  1  0
 14 55  1  0
 18 56  1  0
 19 57  1  0
 20 58  1  0
 21 59  1  0
 22 60  1  0
 23 61  1  0
 23 62  1  0
 25 63  1  0
 26 64  1  0
 27 65  1  0
 28 66  1  0
 29 67  1  0
 30 68  1  0
 31 69  1  0
 32 70  1  0
 32 71  1  0
 35 72  1  0
 36 73  1  0
 37 74  1  0
 38 75  1  0
 39 76  1  0
 41 77  1  0
 41 78  1  0
 44 79  1  0
 45 80  1  0
 45 81  1  0
 45 82  1  0
M  END
