
     RDKit          3D

 33 34  0  0  0  0  0  0  0  0999 V2000
   11.8129   37.2422    1.9671 P   0  0  0  0  0  0  0  0  0  0  0  0
   11.3364   34.7065    1.7953 C   0  0  0  0  0  0  0  0  0  0  0  0
   11.0233   35.9475    1.2128 O   0  0  0  0  0  0  0  0  0  0  0  0
   10.2933   33.6625    1.3142 C   0  0  1  0  0  0  0  0  0  0  0  0
    9.8901   33.8925   -0.0241 O   0  0  0  0  0  0  0  0  0  0  0  0
   10.8063   32.2377    1.4010 C   0  0  1  0  0  0  0  0  0  0  0  0
    9.7280   31.3582    1.6189 O   0  0  0  0  0  0  0  0  0  0  0  0
   11.4053   32.0467    0.0235 C   0  0  0  0  0  0  0  0  0  0  0  0
   10.5087   32.9250   -0.8566 C   0  0  2  0  0  0  0  0  0  0  0  0
   11.1921   33.5711   -2.0123 N   0  0  0  0  0  0  0  0  0  0  0  0
   12.5578   33.7260   -2.0247 C   0  0  0  0  0  0  0  0  0  0  0  0
   13.2427   33.4085   -1.0146 O   0  0  0  0  0  0  0  0  0  0  0  0
   13.1903   34.2124   -3.1370 N   0  0  0  0  0  0  0  0  0  0  0  0
   12.4935   34.5424   -4.2612 C   0  0  0  0  0  0  0  0  0  0  0  0
   13.0943   34.9861   -5.2837 O   0  0  0  0  0  0  0  0  0  0  0  0
   11.1130   34.3870   -4.2807 C   0  0  0  0  0  0  0  0  0  0  0  0
   10.4790   33.8978   -3.1430 C   0  0  0  0  0  0  0  0  0  0  0  0
   11.3317   38.5139    1.3144 O   0  0  0  0  0  0  0  0  0  0  0  0
   11.4420   37.2845    3.6029 O   0  0  0  0  0  0  0  0  0  0  0  0
   13.4737   37.1439    1.7760 O   0  0  0  0  0  0  0  0  0  0  0  0
   12.3572   34.4157    1.4659 H   0  0  0  0  0  0  0  0  0  0  0  0
   11.3175   34.7302    2.9097 H   0  0  0  0  0  0  0  0  0  0  0  0
    9.3968   33.7719    1.9644 H   0  0  0  0  0  0  0  0  0  0  0  0
   11.5720   32.1173    2.2029 H   0  0  0  0  0  0  0  0  0  0  0  0
    9.5367   31.3840    2.5926 H   0  0  0  0  0  0  0  0  0  0  0  0
   11.3879   30.9819   -0.2957 H   0  0  0  0  0  0  0  0  0  0  0  0
   12.4517   32.4233    0.0043 H   0  0  0  0  0  0  0  0  0  0  0  0
    9.6923   32.2815   -1.2554 H   0  0  0  0  0  0  0  0  0  0  0  0
   14.2298   34.3258   -3.1280 H   0  0  0  0  0  0  0  0  0  0  0  0
   10.5376   34.6375   -5.1637 H   0  0  0  0  0  0  0  0  0  0  0  0
    9.4081   33.7727   -3.1962 H   0  0  0  0  0  0  0  0  0  0  0  0
   12.2818   37.0241    4.0591 H   0  0  0  0  0  0  0  0  0  0  0  0
   13.6082   36.9970    0.8057 H   0  0  0  0  0  0  0  0  0  0  0  0
  3  2  1  0
  3  1  1  0
  4  2  1  0
  5  4  1  0
  6  4  1  0
  6  7  1  0
  8  6  1  0
  9  5  1  0
  9  8  1  0
  9 10  1  0
 11 10  1  0
 12 11  2  0
 13 11  1  0
 14 13  1  0
 15 14  2  0
 16 14  1  0
 17 16  2  0
 17 10  1  0
 18  1  2  0
 19  1  1  0
 20  1  1  0
  2 21  1  0
  2 22  1  0
  4 23  1  1
  6 24  1  1
  7 25  1  0
  8 26  1  0
  8 27  1  0
  9 28  1  6
 13 29  1  0
 16 30  1  0
 17 31  1  0
 19 32  1  0
 20 33  1  0
M  END
