
     RDKit          3D

 45 47  0  0  0  0  0  0  0  0999 V2000
   34.4436   61.8569   13.2925 N   0  0  0  0  0  0  0  0  0  0  0  0
   34.6583   62.7817   14.4156 C   0  0  0  0  0  0  0  0  0  0  0  0
   34.6089   64.2432   13.9650 C   0  0  0  0  0  0  0  0  0  0  0  0
   34.0559   64.4378   12.5759 C   0  0  0  0  0  0  0  0  0  0  0  0
   33.0749   63.4498   11.9606 C   0  0  0  0  0  0  0  0  0  0  0  0
   33.1959   62.0320   12.5341 C   0  0  0  0  0  0  0  0  0  0  0  0
   35.3518   60.7961   12.9477 C   0  0  0  0  0  0  0  0  0  0  0  0
   33.9122   65.8417   12.1136 C   0  0  0  0  0  0  0  0  0  0  0  0
   34.9221   59.3353   12.8771 C   0  0  2  0  0  0  0  0  0  0  0  0
   35.1073   58.6034   14.2383 C   0  0  0  0  0  0  0  0  0  0  0  0
   35.8306   59.5117   15.2472 C   0  0  0  0  0  0  0  0  0  0  0  0
   35.8157   57.2454   14.1343 C   0  0  0  0  0  0  0  0  0  0  0  0
   33.1172   66.8185   12.6025 N   0  0  0  0  0  0  0  0  0  0  0  0
   33.5721   67.8765   11.8862 C   0  0  0  0  0  0  0  0  0  0  0  0
   34.5594   67.5559   11.0396 N   0  0  0  0  0  0  0  0  0  0  0  0
   34.7266   66.2859   11.2015 O   0  0  0  0  0  0  0  0  0  0  0  0
   33.1080   69.2402   12.0217 C   0  0  0  0  0  0  0  0  0  0  0  0
   33.8804   70.5693   11.3359 S   0  0  0  0  0  0  0  0  0  0  0  0
   32.8572   71.7204   11.9897 C   0  0  0  0  0  0  0  0  0  0  0  0
   31.9104   71.0584   12.7621 C   0  0  0  0  0  0  0  0  0  0  0  0
   32.0437   69.6678   12.7816 C   0  0  0  0  0  0  0  0  0  0  0  0
   36.5718   61.0737   12.8014 O   0  0  0  0  0  0  0  0  0  0  0  0
   35.6914   58.6220   11.8544 N   0  0  0  0  0  0  0  0  0  0  0  0
   35.6155   62.6465   14.9394 H   0  0  0  0  0  0  0  0  0  0  0  0
   33.8637   62.6014   15.1726 H   0  0  0  0  0  0  0  0  0  0  0  0
   35.6078   64.7251   14.0611 H   0  0  0  0  0  0  0  0  0  0  0  0
   33.9488   64.7929   14.6714 H   0  0  0  0  0  0  0  0  0  0  0  0
   34.9663   64.1388   12.0067 H   0  0  0  0  0  0  0  0  0  0  0  0
   32.0414   63.8184   12.1413 H   0  0  0  0  0  0  0  0  0  0  0  0
   33.2131   63.4162   10.8552 H   0  0  0  0  0  0  0  0  0  0  0  0
   33.0901   61.3000   11.7061 H   0  0  0  0  0  0  0  0  0  0  0  0
   32.3416   61.8447   13.2212 H   0  0  0  0  0  0  0  0  0  0  0  0
   33.8723   59.2561   12.5447 H   0  0  0  0  0  0  0  0  0  0  0  0
   34.1011   58.3818   14.6604 H   0  0  0  0  0  0  0  0  0  0  0  0
   35.2818   60.4706   15.3627 H   0  0  0  0  0  0  0  0  0  0  0  0
   36.8654   59.7280   14.9046 H   0  0  0  0  0  0  0  0  0  0  0  0
   35.8789   59.0198   16.2422 H   0  0  0  0  0  0  0  0  0  0  0  0
   35.6710   56.8145   13.1303 H   0  0  0  0  0  0  0  0  0  0  0  0
   35.4832   56.5406   14.9242 H   0  0  0  0  0  0  0  0  0  0  0  0
   36.9084   57.3867   14.2769 H   0  0  0  0  0  0  0  0  0  0  0  0
   32.9251   72.7904   11.8477 H   0  0  0  0  0  0  0  0  0  0  0  0
   31.1326   71.5786   13.3050 H   0  0  0  0  0  0  0  0  0  0  0  0
   31.3942   69.0103   13.3448 H   0  0  0  0  0  0  0  0  0  0  0  0
   35.5362   59.0863   10.9294 H   0  0  0  0  0  0  0  0  0  0  0  0
   36.7153   58.6765   12.0635 H   0  0  0  0  0  0  0  0  0  0  0  0
  2  1  1  0
  3  2  1  0
  4  3  1  0
  5  4  1  0
  6  5  1  0
  6  1  1  0
  7  1  1  0
  4  8  1  0
  9  7  1  0
 10  9  1  0
 10 11  1  0
 12 10  1  0
 13  8  2  0
 14 13  1  0
 15 14  2  0
 16  8  1  0
 16 15  1  0
 17 14  1  0
 18 17  1  0
 19 18  1  0
 20 19  2  0
 21 20  1  0
 21 17  2  0
 22  7  2  0
  9 23  1  0
  2 24  1  0
  2 25  1  0
  3 26  1  0
  3 27  1  0
  4 28  1  0
  5 29  1  0
  5 30  1  0
  6 31  1  0
  6 32  1  0
  9 33  1  6
 10 34  1  0
 11 35  1  0
 11 36  1  0
 11 37  1  0
 12 38  1  0
 12 39  1  0
 12 40  1  0
 19 41  1  0
 20 42  1  0
 21 43  1  0
 23 44  1  0
 23 45  1  0
M  END
