
     RDKit          3D

 85 87  0  0  0  0  0  0  0  0999 V2000
   48.7592   -0.3081   16.1204 P   0  0  2  0  0  0  0  0  0  0  0  0
   46.7183    0.4532   17.9553 P   0  0  1  0  0  0  0  0  0  0  0  0
   44.8239   -2.1460   14.2919 C   0  0  0  0  0  0  0  0  0  0  0  0
   45.1643   -2.5979   15.6710 C   0  0  0  0  0  0  0  0  0  0  0  0
   46.2981   -3.0924   15.9042 O   0  0  0  0  0  0  0  0  0  0  0  0
   45.6954   -2.2889   22.1690 C   0  0  0  0  0  0  0  0  0  0  0  0
   46.0506   -3.6464   22.1483 O   0  0  0  0  0  0  0  0  0  0  0  0
   45.1768   -1.8750   20.7968 C   0  0  1  0  0  0  0  0  0  0  0  0
   46.1770   -2.2233   19.8431 O   0  0  0  0  0  0  0  0  0  0  0  0
   43.8314   -2.5854   20.4849 C   0  0  1  0  0  0  0  0  0  0  0  0
   42.8262   -2.1927   21.3825 O   0  0  0  0  0  0  0  0  0  0  0  0
   43.3848   -2.3195   19.0395 C   0  0  2  0  0  0  0  0  0  0  0  0
   42.2531   -3.1322   18.7667 O   0  0  0  0  0  0  0  0  0  0  0  0
   44.5550   -2.7008   18.1193 C   0  0  1  0  0  0  0  0  0  0  0  0
   44.2133   -2.4442   16.7225 N   0  0  0  0  0  0  0  0  0  0  0  0
   49.7010   -2.5668   10.6779 O   0  0  0  0  0  0  0  0  0  0  0  0
   45.7872   -1.8752   18.5297 C   0  0  1  0  0  0  0  0  0  0  0  0
   45.4498   -0.4976   18.5067 O   0  0  0  0  0  0  0  0  0  0  0  0
   49.6959   -0.2281   11.3887 C   0  0  1  0  0  0  0  0  0  0  0  0
   51.0989    0.0501   11.7490 N   0  0  0  0  0  0  0  0  0  0  0  0
   49.6887   -1.2989   16.7768 O   0  0  0  0  0  0  0  0  0  0  0  0
   46.1460    1.7796   17.5079 O   0  0  0  0  0  0  0  0  0  0  0  0
   51.7526   -0.6955   12.7002 C   0  0  0  0  0  0  0  0  0  0  0  0
   49.3373   -1.6770   11.7007 C   0  0  1  0  0  0  0  0  0  0  0  0
   51.1981   -1.6974   13.2336 O   0  0  0  0  0  0  0  0  0  0  0  0
   49.3652    1.2509   16.1959 O   0  0  0  0  0  0  0  0  0  0  0  0
   47.8236    0.6301   19.1986 O   0  0  0  0  0  0  0  0  0  0  0  0
   47.8493   -1.5956   11.8547 C   0  0  2  0  0  0  0  0  0  0  0  0
   53.0220   -0.3638   13.0686 N   0  0  0  0  0  0  0  0  0  0  0  0
   47.1915   -0.5054   16.6677 O   0  0  0  0  0  0  0  0  0  0  0  0
   47.2356   -1.7527   10.5932 O   0  0  0  0  0  0  0  0  0  0  0  0
   53.6948    0.6455   12.4517 C   0  0  0  0  0  0  0  0  0  0  0  0
   47.6613   -0.1751   12.4239 C   0  0  2  0  0  0  0  0  0  0  0  0
   41.6194   -4.4966   16.4855 N   0  0  0  0  0  0  0  0  0  0  0  0
   54.9179    0.8274   12.6892 O   0  0  0  0  0  0  0  0  0  0  0  0
   48.8199    0.5878   12.1355 O   0  0  0  0  0  0  0  0  0  0  0  0
   53.0409    1.4410   11.5184 C   0  0  0  0  0  0  0  0  0  0  0  0
   47.4643   -0.1732   13.9353 C   0  0  0  0  0  0  0  0  0  0  0  0
   48.6020   -0.7694   14.5117 O   0  0  0  0  0  0  0  0  0  0  0  0
   51.7374    1.1188   11.1787 C   0  0  0  0  0  0  0  0  0  0  0  0
   41.2389   -2.4861   18.0031 C   0  0  1  0  0  0  0  0  0  0  0  0
   39.7930   -3.0754   16.1816 O   0  0  0  0  0  0  0  0  0  0  0  0
   40.8122   -3.3761   16.8599 C   0  0  0  0  0  0  0  0  0  0  0  0
   40.4976   -6.8624   17.2955 O   0  0  0  0  0  0  0  0  0  0  0  0
   40.0671   -2.1033   18.9153 C   0  0  0  0  0  0  0  0  0  0  0  0
   39.8959   -7.3575   15.1436 O   0  0  0  0  0  0  0  0  0  0  0  0
   41.2705   -5.4135   15.4034 C   0  0  2  0  0  0  0  0  0  0  0  0
   40.4997   -6.5880   15.9374 C   0  0  0  0  0  0  0  0  0  0  0  0
   42.5487   -5.8979   14.7198 C   0  0  0  0  0  0  0  0  0  0  0  0
   45.4065   -2.7231   13.5431 H   0  0  0  0  0  0  0  0  0  0  0  0
   43.7422   -2.2979   14.0930 H   0  0  0  0  0  0  0  0  0  0  0  0
   45.0679   -1.0684   14.1919 H   0  0  0  0  0  0  0  0  0  0  0  0
   44.9166   -2.1281   22.9444 H   0  0  0  0  0  0  0  0  0  0  0  0
   46.5714   -1.6571   22.4464 H   0  0  0  0  0  0  0  0  0  0  0  0
   46.9964   -3.6960   21.8504 H   0  0  0  0  0  0  0  0  0  0  0  0
   45.0270   -0.7718   20.8314 H   0  0  0  0  0  0  0  0  0  0  0  0
   43.9735   -3.6834   20.6013 H   0  0  0  0  0  0  0  0  0  0  0  0
   42.7132   -1.2097   21.2987 H   0  0  0  0  0  0  0  0  0  0  0  0
   43.1566   -1.2301   18.9566 H   0  0  0  0  0  0  0  0  0  0  0  0
   44.7842   -3.7800   18.2699 H   0  0  0  0  0  0  0  0  0  0  0  0
   43.2888   -2.0077   16.5035 H   0  0  0  0  0  0  0  0  0  0  0  0
   50.6902   -2.6409   10.7109 H   0  0  0  0  0  0  0  0  0  0  0  0
   46.6191   -2.1554   17.8417 H   0  0  0  0  0  0  0  0  0  0  0  0
   49.5124   -0.0184   10.3112 H   0  0  0  0  0  0  0  0  0  0  0  0
   49.7847   -2.0165   12.6627 H   0  0  0  0  0  0  0  0  0  0  0  0
   50.3111    1.1722   15.9143 H   0  0  0  0  0  0  0  0  0  0  0  0
   48.4744    1.2988   18.8677 H   0  0  0  0  0  0  0  0  0  0  0  0
   47.4724   -2.3881   12.5369 H   0  0  0  0  0  0  0  0  0  0  0  0
   53.5168   -0.9463   13.7826 H   0  0  0  0  0  0  0  0  0  0  0  0
   47.4110   -0.9476   10.0398 H   0  0  0  0  0  0  0  0  0  0  0  0
   46.7766    0.3130   11.9585 H   0  0  0  0  0  0  0  0  0  0  0  0
   42.4081   -4.7847   17.1076 H   0  0  0  0  0  0  0  0  0  0  0  0
   53.5497    2.2629   11.0294 H   0  0  0  0  0  0  0  0  0  0  0  0
   47.3252    0.8857   14.2585 H   0  0  0  0  0  0  0  0  0  0  0  0
   46.5535   -0.7595   14.1893 H   0  0  0  0  0  0  0  0  0  0  0  0
   51.2548    1.7238   10.4388 H   0  0  0  0  0  0  0  0  0  0  0  0
   41.5983   -1.5469   17.5218 H   0  0  0  0  0  0  0  0  0  0  0  0
   39.9975   -7.6626   17.6638 H   0  0  0  0  0  0  0  0  0  0  0  0
   39.6370   -3.0131   19.3860 H   0  0  0  0  0  0  0  0  0  0  0  0
   40.4208   -1.4182   19.7144 H   0  0  0  0  0  0  0  0  0  0  0  0
   39.2756   -1.5875   18.3309 H   0  0  0  0  0  0  0  0  0  0  0  0
   40.6511   -4.8893   14.6427 H   0  0  0  0  0  0  0  0  0  0  0  0
   42.3014   -6.5967   13.8920 H   0  0  0  0  0  0  0  0  0  0  0  0
   43.0934   -5.0354   14.2857 H   0  0  0  0  0  0  0  0  0  0  0  0
   43.2120   -6.4192   15.4436 H   0  0  0  0  0  0  0  0  0  0  0  0
  4  3  1  0
  5  4  2  0
  7  6  1  0
  8  6  1  0
  9  8  1  0
 10  8  1  0
 10 11  1  0
 12 10  1  0
 12 13  1  0
 14 12  1  0
 14 15  1  0
 15  4  1  0
 17 14  1  0
 17  9  1  0
 17 18  1  0
  2 18  1  1
 19 20  1  0
 21  1  2  0
 22  2  2  0
 23 20  1  0
 24 16  1  0
 24 19  1  0
 25 23  2  0
  1 26  1  6
 27  2  1  0
 28 24  1  0
 29 23  1  0
 30  1  1  0
 30  2  1  0
 28 31  1  0
 32 29  1  0
 33 28  1  0
 35 32  2  0
 36 33  1  0
 36 19  1  0
 37 32  1  0
 33 38  1  0
 39 38  1  0
 39  1  1  0
 40 37  2  0
 40 20  1  0
 41 13  1  0
 43 42  2  0
 43 41  1  0
 43 34  1  0
 41 45  1  0
 47 34  1  0
 48 46  2  0
 48 44  1  0
 48 47  1  0
 47 49  1  0
  3 50  1  0
  3 51  1  0
  3 52  1  0
  6 53  1  0
  6 54  1  0
  7 55  1  0
  8 56  1  1
 10 57  1  6
 11 58  1  0
 12 59  1  1
 14 60  1  6
 15 61  1  0
 16 62  1  0
 17 63  1  6
 19 64  1  6
 24 65  1  1
 26 66  1  0
 27 67  1  0
 28 68  1  1
 29 69  1  0
 31 70  1  0
 33 71  1  6
 34 72  1  0
 37 73  1  0
 38 74  1  0
 38 75  1  0
 40 76  1  0
 41 77  1  6
 44 78  1  0
 45 79  1  0
 45 80  1  0
 45 81  1  0
 47 82  1  6
 49 83  1  0
 49 84  1  0
 49 85  1  0
M  END
