
     RDKit          3D

 26 25  0  0  0  0  0  0  0  0999 V2000
    5.7910   -0.6644   14.7682 P   0  0  0  0  0  0  0  0  0  0  0  0
    4.3283   -1.0137   14.6352 O   0  0  0  0  0  0  0  0  0  0  0  0
    6.6261   -1.9215   15.4992 O   0  0  0  0  0  0  0  0  0  0  0  0
    6.0019    0.7187   15.6922 O   0  0  0  0  0  0  0  0  0  0  0  0
    5.6652    2.6104   10.6518 C   0  0  0  0  0  0  0  0  0  0  0  0
    5.9084    3.4803    9.7772 O   0  0  0  0  0  0  0  0  0  0  0  0
    4.7429    2.8703   11.6475 O   0  0  0  0  0  0  0  0  0  0  0  0
    6.4067    1.3190   10.6486 C   0  0  1  0  0  0  0  0  0  0  0  0
    7.3824    1.3603   11.6585 O   0  0  0  0  0  0  0  0  0  0  0  0
    5.4277    0.1742   10.9286 C   0  0  2  0  0  0  0  0  0  0  0  0
    4.7034    0.4442   12.1035 O   0  0  0  0  0  0  0  0  0  0  0  0
    6.1673   -1.1814   11.0314 C   0  0  2  0  0  0  0  0  0  0  0  0
    5.3722   -2.2135   10.5034 O   0  0  0  0  0  0  0  0  0  0  0  0
    6.5577   -1.5002   12.4741 C   0  0  0  0  0  0  0  0  0  0  0  0
    6.4211   -0.3251   13.2379 O   0  0  0  0  0  0  0  0  0  0  0  0
    7.2047   -2.2919   14.7859 H   0  0  0  0  0  0  0  0  0  0  0  0
    5.5951    0.5031   16.5691 H   0  0  0  0  0  0  0  0  0  0  0  0
    4.2429    3.7508   11.6765 H   0  0  0  0  0  0  0  0  0  0  0  0
    6.8711    1.1919    9.6420 H   0  0  0  0  0  0  0  0  0  0  0  0
    7.1782    0.6256   12.2944 H   0  0  0  0  0  0  0  0  0  0  0  0
    4.7042    0.1296   10.0844 H   0  0  0  0  0  0  0  0  0  0  0  0
    3.8249   -0.0140   12.0367 H   0  0  0  0  0  0  0  0  0  0  0  0
    7.1072   -1.1407   10.4389 H   0  0  0  0  0  0  0  0  0  0  0  0
    4.4796   -1.8366   10.2861 H   0  0  0  0  0  0  0  0  0  0  0  0
    5.8588   -2.2643   12.8765 H   0  0  0  0  0  0  0  0  0  0  0  0
    7.5721   -1.9646   12.4849 H   0  0  0  0  0  0  0  0  0  0  0  0
  2  1  2  0
  3  1  1  0
  4  1  1  0
  6  5  2  0
  7  5  1  0
  8  5  1  0
  8  9  1  0
 10  8  1  0
 10 11  1  0
 12 10  1  0
 12 13  1  0
 14 12  1  0
 15 14  1  0
 15  1  1  0
  3 16  1  0
  4 17  1  0
  7 18  1  0
  8 19  1  6
  9 20  1  0
 10 21  1  6
 11 22  1  0
 12 23  1  6
 13 24  1  0
 14 25  1  0
 14 26  1  0
M  END
