
     RDKit          3D

 26 25  0  0  0  0  0  0  0  0999 V2000
  -10.1713    5.2601  -12.7888 P   0  0  0  0  0  0  0  0  0  0  0  0
  -10.5459    5.2888  -14.2524 O   0  0  0  0  0  0  0  0  0  0  0  0
  -10.7293    3.8529  -12.0695 O   0  0  0  0  0  0  0  0  0  0  0  0
  -10.8104    6.5908  -11.9917 O   0  0  0  0  0  0  0  0  0  0  0  0
   -5.2363    5.7955   -8.8988 C   0  0  0  0  0  0  0  0  0  0  0  0
   -5.4718    5.9842   -7.6767 O   0  0  0  0  0  0  0  0  0  0  0  0
   -4.5685    6.7669   -9.6243 O   0  0  0  0  0  0  0  0  0  0  0  0
   -5.6887    4.5395   -9.5906 C   0  0  1  0  0  0  0  0  0  0  0  0
   -6.5335    3.8029   -8.7395 O   0  0  0  0  0  0  0  0  0  0  0  0
   -6.4508    4.9223  -10.8743 C   0  0  2  0  0  0  0  0  0  0  0  0
   -7.4921    5.8055  -10.5489 O   0  0  0  0  0  0  0  0  0  0  0  0
   -7.0144    3.6994  -11.6361 C   0  0  2  0  0  0  0  0  0  0  0  0
   -5.9804    2.8317  -12.0250 O   0  0  0  0  0  0  0  0  0  0  0  0
   -7.8660    4.1151  -12.8540 C   0  0  0  0  0  0  0  0  0  0  0  0
   -8.4894    5.3609  -12.6165 O   0  0  0  0  0  0  0  0  0  0  0  0
  -11.7125    3.8809  -12.1845 H   0  0  0  0  0  0  0  0  0  0  0  0
  -10.1334    6.8269  -11.3084 H   0  0  0  0  0  0  0  0  0  0  0  0
   -3.6029    6.6377   -9.9019 H   0  0  0  0  0  0  0  0  0  0  0  0
   -4.7790    3.9509   -9.8558 H   0  0  0  0  0  0  0  0  0  0  0  0
   -6.3496    2.8414   -8.9051 H   0  0  0  0  0  0  0  0  0  0  0  0
   -5.7495    5.4587  -11.5513 H   0  0  0  0  0  0  0  0  0  0  0  0
   -7.5401    5.8780   -9.5596 H   0  0  0  0  0  0  0  0  0  0  0  0
   -7.6866    3.1310  -10.9573 H   0  0  0  0  0  0  0  0  0  0  0  0
   -5.1181    3.2573  -11.7782 H   0  0  0  0  0  0  0  0  0  0  0  0
   -7.1874    4.2351  -13.7254 H   0  0  0  0  0  0  0  0  0  0  0  0
   -8.5540    3.2823  -13.1274 H   0  0  0  0  0  0  0  0  0  0  0  0
  2  1  2  0
  3  1  1  0
  4  1  1  0
  6  5  2  0
  7  5  1  0
  8  5  1  0
  8  9  1  0
 10  8  1  0
 10 11  1  0
 12 10  1  0
 12 13  1  0
 14 12  1  0
 15 14  1  0
 15  1  1  0
  3 16  1  0
  4 17  1  0
  7 18  1  0
  8 19  1  6
  9 20  1  0
 10 21  1  6
 11 22  1  0
 12 23  1  1
 13 24  1  0
 14 25  1  0
 14 26  1  0
M  END
