
     RDKit          3D

 72 74  0  0  0  0  0  0  0  0999 V2000
   60.8536    5.1293    0.4401 C   0  0  1  0  0  0  0  0  0  0  0  0
   61.1857    4.0417    1.2718 O   0  0  0  0  0  0  0  0  0  0  0  0
   61.2141    6.4648    1.0562 C   0  0  0  0  0  0  0  0  0  0  0  0
   59.4229    7.7370    0.1490 O   0  0  0  0  0  0  0  0  0  0  0  0
   60.8238    7.6828    0.2548 C   0  0  2  0  0  0  0  0  0  0  0  0
   66.8325    0.2508   -5.6537 O   0  0  0  0  0  0  0  0  0  0  0  0
   61.4488    7.6016   -1.1498 C   0  0  0  0  0  0  0  0  0  0  0  0
   61.2217    6.2457   -1.7983 C   0  0  0  0  0  0  0  0  0  0  0  0
   60.9344    6.1915   -3.1164 C   0  0  0  0  0  0  0  0  0  0  0  0
   60.7159    4.9429   -3.8813 C   0  0  0  0  0  0  0  0  0  0  0  0
   60.9799    4.8189   -5.1966 C   0  0  0  0  0  0  0  0  0  0  0  0
   61.6599    5.8815   -6.0433 C   0  0  0  0  0  0  0  0  0  0  0  0
   61.5149    5.0134   -0.9499 C   0  0  0  0  0  0  0  0  0  0  0  0
   62.9711    5.3428   -6.6499 C   0  0  0  0  0  0  0  0  0  0  0  0
   62.8266    3.9368   -7.2903 C   0  0  0  0  0  0  0  0  0  0  0  0
   62.1576    2.9193   -6.3129 C   0  0  1  0  0  0  0  0  0  0  0  0
   60.7934    3.5291   -5.9407 C   0  0  1  0  0  0  0  0  0  0  0  0
   59.9442    2.3966   -5.3895 C   0  0  0  0  0  0  0  0  0  0  0  0
   60.2787    1.2793   -6.3671 C   0  0  0  0  0  0  0  0  0  0  0  0
   61.6840    1.5834   -6.8728 C   0  0  0  0  0  0  0  0  0  0  0  0
   63.0596    2.6549   -5.0730 C   0  0  0  0  0  0  0  0  0  0  0  0
   62.3678    0.6792   -7.6347 C   0  0  0  0  0  0  0  0  0  0  0  0
   61.6351   -0.5594   -8.1112 C   0  0  0  0  0  0  0  0  0  0  0  0
   63.8334    0.8043   -8.0315 C   0  0  0  0  0  0  0  0  0  0  0  0
   64.6140   -0.4302   -7.5592 C   0  0  0  0  0  0  0  0  0  0  0  0
   66.1152   -0.3675   -7.8906 C   0  0  0  0  0  0  0  0  0  0  0  0
   67.0019   -0.7183   -6.6604 C   0  0  0  0  0  0  0  0  0  0  0  0
   66.5976   -2.0893   -6.0933 C   0  0  0  0  0  0  0  0  0  0  0  0
   68.4933   -0.7614   -7.0489 C   0  0  0  0  0  0  0  0  0  0  0  0
   61.8530    6.5904    2.2311 C   0  0  0  0  0  0  0  0  0  0  0  0
   59.7513    5.1057    0.2969 H   0  0  0  0  0  0  0  0  0  0  0  0
   61.8759    4.3509    1.9155 H   0  0  0  0  0  0  0  0  0  0  0  0
   59.0812    8.0302    1.0342 H   0  0  0  0  0  0  0  0  0  0  0  0
   61.1933    8.6195    0.7351 H   0  0  0  0  0  0  0  0  0  0  0  0
   65.8690    0.2806   -5.4126 H   0  0  0  0  0  0  0  0  0  0  0  0
   61.0338    8.4273   -1.7692 H   0  0  0  0  0  0  0  0  0  0  0  0
   62.5451    7.7679   -1.0687 H   0  0  0  0  0  0  0  0  0  0  0  0
   60.8113    7.1274   -3.6450 H   0  0  0  0  0  0  0  0  0  0  0  0
   60.2840    4.1054   -3.3594 H   0  0  0  0  0  0  0  0  0  0  0  0
   61.9021    6.8054   -5.4851 H   0  0  0  0  0  0  0  0  0  0  0  0
   60.9727    6.1714   -6.8675 H   0  0  0  0  0  0  0  0  0  0  0  0
   61.1716    4.0688   -1.4107 H   0  0  0  0  0  0  0  0  0  0  0  0
   62.6178    4.9365   -0.8335 H   0  0  0  0  0  0  0  0  0  0  0  0
   63.3238    6.0553   -7.4267 H   0  0  0  0  0  0  0  0  0  0  0  0
   63.7548    5.3171   -5.8628 H   0  0  0  0  0  0  0  0  0  0  0  0
   63.8428    3.6447   -7.5977 H   0  0  0  0  0  0  0  0  0  0  0  0
   62.2209    4.0196   -8.2197 H   0  0  0  0  0  0  0  0  0  0  0  0
   60.2661    3.8250   -6.8833 H   0  0  0  0  0  0  0  0  0  0  0  0
   58.8609    2.6461   -5.4041 H   0  0  0  0  0  0  0  0  0  0  0  0
   60.2561    2.1032   -4.3646 H   0  0  0  0  0  0  0  0  0  0  0  0
   60.2381    0.2998   -5.8433 H   0  0  0  0  0  0  0  0  0  0  0  0
   59.5575    1.2909   -7.2132 H   0  0  0  0  0  0  0  0  0  0  0  0
   63.6872    1.7548   -5.2300 H   0  0  0  0  0  0  0  0  0  0  0  0
   62.4494    2.4814   -4.1616 H   0  0  0  0  0  0  0  0  0  0  0  0
   63.7401    3.5028   -4.8583 H   0  0  0  0  0  0  0  0  0  0  0  0
   60.6532   -0.2902   -8.5530 H   0  0  0  0  0  0  0  0  0  0  0  0
   61.4858   -1.2641   -7.2664 H   0  0  0  0  0  0  0  0  0  0  0  0
   62.1884   -1.0782   -8.9206 H   0  0  0  0  0  0  0  0  0  0  0  0
   64.3299    1.6589   -7.5626 H   0  0  0  0  0  0  0  0  0  0  0  0
   63.9079    0.9069   -9.1352 H   0  0  0  0  0  0  0  0  0  0  0  0
   64.1882   -1.3420   -8.0214 H   0  0  0  0  0  0  0  0  0  0  0  0
   64.4887   -0.5163   -6.4580 H   0  0  0  0  0  0  0  0  0  0  0  0
   66.3284   -1.0891   -8.7102 H   0  0  0  0  0  0  0  0  0  0  0  0
   66.3673    0.6489   -8.2663 H   0  0  0  0  0  0  0  0  0  0  0  0
   66.5092   -2.0452   -4.9865 H   0  0  0  0  0  0  0  0  0  0  0  0
   67.3606   -2.8561   -6.3480 H   0  0  0  0  0  0  0  0  0  0  0  0
   65.6181   -2.4101   -6.5093 H   0  0  0  0  0  0  0  0  0  0  0  0
   68.7431   -1.7144   -7.5598 H   0  0  0  0  0  0  0  0  0  0  0  0
   68.7331    0.0620   -7.7558 H   0  0  0  0  0  0  0  0  0  0  0  0
   69.1377   -0.6537   -6.1499 H   0  0  0  0  0  0  0  0  0  0  0  0
   62.0957    7.5707    2.6295 H   0  0  0  0  0  0  0  0  0  0  0  0
   62.1399    5.7286    2.8231 H   0  0  0  0  0  0  0  0  0  0  0  0
  1  2  1  0
  3  1  1  0
  5  4  1  0
  5  3  1  0
  7  5  1  0
  8  7  1  0
  9  8  2  3
 10  9  1  0
 11 10  2  3
 12 11  1  0
 13  8  1  0
 13  1  1  0
 14 12  1  0
 15 14  1  0
 16 15  1  0
 17 16  1  0
 17 11  1  0
 17 18  1  0
 19 18  1  0
 20 19  1  0
 20 16  1  0
 16 21  1  1
 22 20  2  3
 23 22  1  0
 24 22  1  0
 25 24  1  0
 26 25  1  0
 27 26  1  0
 27  6  1  0
 27 28  1  0
 29 27  1  0
 30  3  2  0
  1 31  1  6
  2 32  1  0
  4 33  1  0
  5 34  1  1
  6 35  1  0
  7 36  1  0
  7 37  1  0
  9 38  1  0
 10 39  1  0
 12 40  1  0
 12 41  1  0
 13 42  1  0
 13 43  1  0
 14 44  1  0
 14 45  1  0
 15 46  1  0
 15 47  1  0
 17 48  1  6
 18 49  1  0
 18 50  1  0
 19 51  1  0
 19 52  1  0
 21 53  1  0
 21 54  1  0
 21 55  1  0
 23 56  1  0
 23 57  1  0
 23 58  1  0
 24 59  1  0
 24 60  1  0
 25 61  1  0
 25 62  1  0
 26 63  1  0
 26 64  1  0
 28 65  1  0
 28 66  1  0
 28 67  1  0
 29 68  1  0
 29 69  1  0
 29 70  1  0
 30 71  1  0
 30 72  1  0
M  END
