
     RDKit          3D

 72 74  0  0  0  0  0  0  0  0999 V2000
   60.9147    4.6057    0.7473 C   0  0  1  0  0  0  0  0  0  0  0  0
   61.2469    3.5182    1.5789 O   0  0  0  0  0  0  0  0  0  0  0  0
   61.2752    5.9412    1.3634 C   0  0  0  0  0  0  0  0  0  0  0  0
   59.4840    7.2135    0.4562 O   0  0  0  0  0  0  0  0  0  0  0  0
   60.8849    7.1592    0.5620 C   0  0  2  0  0  0  0  0  0  0  0  0
   66.2712    0.5436   -5.6255 O   0  0  0  0  0  0  0  0  0  0  0  0
   61.5100    7.0780   -0.8426 C   0  0  0  0  0  0  0  0  0  0  0  0
   61.2828    5.7221   -1.4911 C   0  0  0  0  0  0  0  0  0  0  0  0
   60.9956    5.6679   -2.8093 C   0  0  0  0  0  0  0  0  0  0  0  0
   60.7770    4.4193   -3.5741 C   0  0  0  0  0  0  0  0  0  0  0  0
   61.0410    4.2954   -4.8895 C   0  0  0  0  0  0  0  0  0  0  0  0
   61.7210    5.3579   -5.7362 C   0  0  0  0  0  0  0  0  0  0  0  0
   61.5760    4.4899   -0.6427 C   0  0  0  0  0  0  0  0  0  0  0  0
   63.0322    4.8192   -6.3427 C   0  0  0  0  0  0  0  0  0  0  0  0
   62.8878    3.4132   -6.9831 C   0  0  0  0  0  0  0  0  0  0  0  0
   62.2187    2.3957   -6.0057 C   0  0  1  0  0  0  0  0  0  0  0  0
   60.8546    3.0055   -5.6335 C   0  0  1  0  0  0  0  0  0  0  0  0
   60.0053    1.8730   -5.0824 C   0  0  0  0  0  0  0  0  0  0  0  0
   60.3398    0.7557   -6.0599 C   0  0  0  0  0  0  0  0  0  0  0  0
   61.7451    1.0598   -6.5657 C   0  0  0  0  0  0  0  0  0  0  0  0
   63.1207    2.1313   -4.7659 C   0  0  0  0  0  0  0  0  0  0  0  0
   62.4290    0.1556   -7.3276 C   0  0  0  0  0  0  0  0  0  0  0  0
   61.6963   -1.0830   -7.8041 C   0  0  0  0  0  0  0  0  0  0  0  0
   63.8945    0.2807   -7.7243 C   0  0  0  0  0  0  0  0  0  0  0  0
   64.6751   -0.9538   -7.2521 C   0  0  0  0  0  0  0  0  0  0  0  0
   66.1763   -0.8910   -7.5834 C   0  0  0  0  0  0  0  0  0  0  0  0
   66.8853    0.2953   -6.8676 C   0  0  0  0  0  0  0  0  0  0  0  0
   68.3649   -0.0451   -6.6230 C   0  0  0  0  0  0  0  0  0  0  0  0
   66.8046    1.5802   -7.7160 C   0  0  0  0  0  0  0  0  0  0  0  0
   61.9142    6.0668    2.5383 C   0  0  0  0  0  0  0  0  0  0  0  0
   59.8125    4.5821    0.6041 H   0  0  0  0  0  0  0  0  0  0  0  0
   60.6532    2.7592    1.3386 H   0  0  0  0  0  0  0  0  0  0  0  0
   59.1423    7.5066    1.3414 H   0  0  0  0  0  0  0  0  0  0  0  0
   61.2544    8.0960    1.0423 H   0  0  0  0  0  0  0  0  0  0  0  0
   66.3185   -0.2893   -5.0857 H   0  0  0  0  0  0  0  0  0  0  0  0
   61.0949    7.9037   -1.4621 H   0  0  0  0  0  0  0  0  0  0  0  0
   62.6062    7.2443   -0.7615 H   0  0  0  0  0  0  0  0  0  0  0  0
   60.8725    6.6038   -3.3378 H   0  0  0  0  0  0  0  0  0  0  0  0
   60.3451    3.5818   -3.0523 H   0  0  0  0  0  0  0  0  0  0  0  0
   61.9632    6.2818   -5.1779 H   0  0  0  0  0  0  0  0  0  0  0  0
   61.0339    5.6478   -6.5603 H   0  0  0  0  0  0  0  0  0  0  0  0
   61.2328    3.5452   -1.1035 H   0  0  0  0  0  0  0  0  0  0  0  0
   62.6790    4.4129   -0.5263 H   0  0  0  0  0  0  0  0  0  0  0  0
   63.3849    5.5317   -7.1195 H   0  0  0  0  0  0  0  0  0  0  0  0
   63.8159    4.7935   -5.5556 H   0  0  0  0  0  0  0  0  0  0  0  0
   63.9039    3.1211   -7.2905 H   0  0  0  0  0  0  0  0  0  0  0  0
   62.2821    3.4960   -7.9126 H   0  0  0  0  0  0  0  0  0  0  0  0
   60.3272    3.3014   -6.5762 H   0  0  0  0  0  0  0  0  0  0  0  0
   58.9220    2.1225   -5.0969 H   0  0  0  0  0  0  0  0  0  0  0  0
   60.3172    1.5796   -4.0574 H   0  0  0  0  0  0  0  0  0  0  0  0
   60.2993   -0.2238   -5.5362 H   0  0  0  0  0  0  0  0  0  0  0  0
   59.6186    0.7673   -6.9060 H   0  0  0  0  0  0  0  0  0  0  0  0
   62.5070    1.8393   -3.8902 H   0  0  0  0  0  0  0  0  0  0  0  0
   63.6931    3.0402   -4.4840 H   0  0  0  0  0  0  0  0  0  0  0  0
   63.8550    1.3206   -4.9439 H   0  0  0  0  0  0  0  0  0  0  0  0
   60.7144   -0.8138   -8.2459 H   0  0  0  0  0  0  0  0  0  0  0  0
   61.5469   -1.7877   -6.9593 H   0  0  0  0  0  0  0  0  0  0  0  0
   62.2495   -1.6017   -8.6135 H   0  0  0  0  0  0  0  0  0  0  0  0
   64.3911    1.1353   -7.2554 H   0  0  0  0  0  0  0  0  0  0  0  0
   63.9690    0.3833   -8.8281 H   0  0  0  0  0  0  0  0  0  0  0  0
   64.2494   -1.8656   -7.7142 H   0  0  0  0  0  0  0  0  0  0  0  0
   64.5498   -1.0398   -6.1508 H   0  0  0  0  0  0  0  0  0  0  0  0
   66.6509   -1.8450   -7.2630 H   0  0  0  0  0  0  0  0  0  0  0  0
   66.3071   -0.8063   -8.6849 H   0  0  0  0  0  0  0  0  0  0  0  0
   68.7794    0.5762   -5.8002 H   0  0  0  0  0  0  0  0  0  0  0  0
   68.9652    0.1493   -7.5378 H   0  0  0  0  0  0  0  0  0  0  0  0
   68.4779   -1.1149   -6.3437 H   0  0  0  0  0  0  0  0  0  0  0  0
   65.8669    1.6061   -8.3090 H   0  0  0  0  0  0  0  0  0  0  0  0
   66.8027    2.4774   -7.0603 H   0  0  0  0  0  0  0  0  0  0  0  0
   67.6716    1.6504   -8.4078 H   0  0  0  0  0  0  0  0  0  0  0  0
   62.1569    7.0471    2.9366 H   0  0  0  0  0  0  0  0  0  0  0  0
   62.2010    5.2050    3.1303 H   0  0  0  0  0  0  0  0  0  0  0  0
  1  2  1  0
  3  1  1  0
  5  4  1  0
  5  3  1  0
  7  5  1  0
  8  7  1  0
  9  8  2  3
 10  9  1  0
 11 10  2  3
 12 11  1  0
 13  8  1  0
 13  1  1  0
 14 12  1  0
 15 14  1  0
 16 15  1  0
 17 16  1  0
 17 11  1  0
 17 18  1  0
 19 18  1  0
 20 19  1  0
 20 16  1  0
 16 21  1  1
 22 20  2  3
 23 22  1  0
 24 22  1  0
 25 24  1  0
 26 25  1  0
 27 26  1  0
 27  6  1  0
 27 28  1  0
 29 27  1  0
 30  3  2  0
  1 31  1  6
  2 32  1  0
  4 33  1  0
  5 34  1  1
  6 35  1  0
  7 36  1  0
  7 37  1  0
  9 38  1  0
 10 39  1  0
 12 40  1  0
 12 41  1  0
 13 42  1  0
 13 43  1  0
 14 44  1  0
 14 45  1  0
 15 46  1  0
 15 47  1  0
 17 48  1  6
 18 49  1  0
 18 50  1  0
 19 51  1  0
 19 52  1  0
 21 53  1  0
 21 54  1  0
 21 55  1  0
 23 56  1  0
 23 57  1  0
 23 58  1  0
 24 59  1  0
 24 60  1  0
 25 61  1  0
 25 62  1  0
 26 63  1  0
 26 64  1  0
 28 65  1  0
 28 66  1  0
 28 67  1  0
 29 68  1  0
 29 69  1  0
 29 70  1  0
 30 71  1  0
 30 72  1  0
M  END
