
     RDKit          3D

 31 33  0  0  0  0  0  0  0  0999 V2000
   47.7556   10.2851   -4.6084 C   0  0  0  0  0  0  0  0  0  0  0  0
   46.5746    9.6405   -4.1889 O   0  0  0  0  0  0  0  0  0  0  0  0
   47.7634   10.3912   -6.1355 C   0  0  1  0  0  0  0  0  0  0  0  0
   46.5969   11.0374   -6.5728 O   0  0  0  0  0  0  0  0  0  0  0  0
   48.9493   11.1717   -6.7191 C   0  0  1  0  0  0  0  0  0  0  0  0
   50.0027   10.3048   -7.0799 O   0  0  0  0  0  0  0  0  0  0  0  0
   48.3294   11.9245   -7.9113 C   0  0  1  0  0  0  0  0  0  0  0  0
   48.9405   11.6082   -9.1383 O   0  0  0  0  0  0  0  0  0  0  0  0
   46.8716   11.4413   -7.8900 C   0  0  2  0  0  0  0  0  0  0  0  0
   42.9983   12.6619  -11.0975 N   0  0  0  0  0  0  0  0  0  0  0  0
   43.8263   11.5680  -11.1220 C   0  0  0  0  0  0  0  0  0  0  0  0
   44.8358   11.4388  -10.2076 N   0  0  0  0  0  0  0  0  0  0  0  0
   44.9921   12.4104   -9.2714 C   0  0  0  0  0  0  0  0  0  0  0  0
   44.1795   13.4967   -9.2126 C   0  0  0  0  0  0  0  0  0  0  0  0
   43.1504   13.6464  -10.1573 C   0  0  0  0  0  0  0  0  0  0  0  0
   42.3904   14.6579  -10.1580 O   0  0  0  0  0  0  0  0  0  0  0  0
   44.5272   14.2775   -8.1652 N   0  0  0  0  0  0  0  0  0  0  0  0
   45.5774   13.6089   -7.6093 C   0  0  0  0  0  0  0  0  0  0  0  0
   45.9058   12.4729   -8.2834 N   0  0  0  0  0  0  0  0  0  0  0  0
   47.8383   11.2960   -4.1464 H   0  0  0  0  0  0  0  0  0  0  0  0
   48.6277    9.6818   -4.2780 H   0  0  0  0  0  0  0  0  0  0  0  0
   46.1072    9.3357   -5.0100 H   0  0  0  0  0  0  0  0  0  0  0  0
   47.7544    9.3502   -6.5367 H   0  0  0  0  0  0  0  0  0  0  0  0
   49.3308   11.9109   -5.9804 H   0  0  0  0  0  0  0  0  0  0  0  0
   50.3737    9.9035   -6.2508 H   0  0  0  0  0  0  0  0  0  0  0  0
   48.3895   13.0211   -7.7277 H   0  0  0  0  0  0  0  0  0  0  0  0
   49.0571   12.4665   -9.6231 H   0  0  0  0  0  0  0  0  0  0  0  0
   46.7624   10.5602   -8.5662 H   0  0  0  0  0  0  0  0  0  0  0  0
   42.2410   12.7414  -11.8132 H   0  0  0  0  0  0  0  0  0  0  0  0
   43.6874   10.8027  -11.8743 H   0  0  0  0  0  0  0  0  0  0  0  0
   46.0731   13.9403   -6.7064 H   0  0  0  0  0  0  0  0  0  0  0  0
  2  1  1  0
  3  1  1  0
  4  3  1  0
  5  3  1  0
  5  6  1  0
  7  5  1  0
  7  8  1  0
  9  7  1  0
  9  4  1  0
 11 10  1  0
 12 11  2  0
 13 12  1  0
 14 13  2  0
 15 10  1  0
 15 14  1  0
 16 15  2  0
 17 14  1  0
 18 17  2  0
 19 18  1  0
 19 13  1  0
  9 19  1  0
  1 20  1  0
  1 21  1  0
  2 22  1  0
  3 23  1  6
  5 24  1  1
  6 25  1  0
  7 26  1  1
  8 27  1  0
  9 28  1  6
 10 29  1  0
 11 30  1  0
 18 31  1  0
M  END
