
     RDKit          3D

 31 33  0  0  0  0  0  0  0  0999 V2000
   27.5263   20.3100   68.0037 C   0  0  0  0  0  0  0  0  0  0  0  0
   28.4557   20.3428   69.0586 O   0  0  0  0  0  0  0  0  0  0  0  0
   27.7995   21.4739   67.0372 C   0  0  1  0  0  0  0  0  0  0  0  0
   29.1489   21.4580   66.6343 O   0  0  0  0  0  0  0  0  0  0  0  0
   26.9509   21.4209   65.7629 C   0  0  1  0  0  0  0  0  0  0  0  0
   25.8041   22.2281   65.8922 O   0  0  0  0  0  0  0  0  0  0  0  0
   27.9122   21.9142   64.6727 C   0  0  1  0  0  0  0  0  0  0  0  0
   27.4705   23.0811   64.0243 O   0  0  0  0  0  0  0  0  0  0  0  0
   29.2036   22.2017   65.4449 C   0  0  2  0  0  0  0  0  0  0  0  0
   34.1210   23.4273   64.4745 N   0  0  0  0  0  0  0  0  0  0  0  0
   33.1551   24.1715   65.1049 C   0  0  0  0  0  0  0  0  0  0  0  0
   31.8775   23.6980   65.2217 N   0  0  0  0  0  0  0  0  0  0  0  0
   31.5922   22.4785   64.6956 C   0  0  0  0  0  0  0  0  0  0  0  0
   32.5278   21.7164   64.0739 C   0  0  0  0  0  0  0  0  0  0  0  0
   33.8367   22.1953   63.9467 C   0  0  0  0  0  0  0  0  0  0  0  0
   34.7345   21.5208   63.3667 O   0  0  0  0  0  0  0  0  0  0  0  0
   31.9913   20.5360   63.6976 N   0  0  0  0  0  0  0  0  0  0  0  0
   30.6992   20.6350   64.1181 C   0  0  0  0  0  0  0  0  0  0  0  0
   30.4167   21.8270   64.7101 N   0  0  0  0  0  0  0  0  0  0  0  0
   27.5759   19.3350   67.4660 H   0  0  0  0  0  0  0  0  0  0  0  0
   26.5059   20.4183   68.4289 H   0  0  0  0  0  0  0  0  0  0  0  0
   29.2073   20.9183   68.7592 H   0  0  0  0  0  0  0  0  0  0  0  0
   27.6018   22.4289   67.5786 H   0  0  0  0  0  0  0  0  0  0  0  0
   26.6565   20.3667   65.5431 H   0  0  0  0  0  0  0  0  0  0  0  0
   25.1882   21.9625   65.1605 H   0  0  0  0  0  0  0  0  0  0  0  0
   28.0630   21.1025   63.9256 H   0  0  0  0  0  0  0  0  0  0  0  0
   27.9323   23.8417   64.4644 H   0  0  0  0  0  0  0  0  0  0  0  0
   29.2498   23.2853   65.7057 H   0  0  0  0  0  0  0  0  0  0  0  0
   35.0893   23.8128   64.3981 H   0  0  0  0  0  0  0  0  0  0  0  0
   33.4035   25.1414   65.5153 H   0  0  0  0  0  0  0  0  0  0  0  0
   29.9906   19.8226   64.0262 H   0  0  0  0  0  0  0  0  0  0  0  0
  2  1  1  0
  3  1  1  0
  4  3  1  0
  5  3  1  0
  5  6  1  0
  7  5  1  0
  7  8  1  0
  9  7  1  0
  9  4  1  0
 11 10  1  0
 12 11  2  0
 13 12  1  0
 14 13  2  0
 15 14  1  0
 15 10  1  0
 16 15  2  0
 17 14  1  0
 18 17  2  0
 19 18  1  0
 19 13  1  0
  9 19  1  0
  1 20  1  0
  1 21  1  0
  2 22  1  0
  3 23  1  1
  5 24  1  6
  6 25  1  0
  7 26  1  6
  8 27  1  0
  9 28  1  1
 10 29  1  0
 11 30  1  0
 18 31  1  0
M  END
