
     RDKit          3D

 31 33  0  0  0  0  0  0  0  0999 V2000
   22.2190   12.2669   39.3994 C   0  0  0  0  0  0  0  0  0  0  0  0
   21.7298   11.2945   38.5092 O   0  0  0  0  0  0  0  0  0  0  0  0
   21.0371   12.9895   40.0606 C   0  0  1  0  0  0  0  0  0  0  0  0
   20.4656   12.1556   41.0349 O   0  0  0  0  0  0  0  0  0  0  0  0
   21.4058   14.2997   40.7732 C   0  0  1  0  0  0  0  0  0  0  0  0
   21.2555   15.4175   39.9262 O   0  0  0  0  0  0  0  0  0  0  0  0
   20.4790   14.3154   42.0070 C   0  0  1  0  0  0  0  0  0  0  0  0
   19.6303   15.4436   42.0652 O   0  0  0  0  0  0  0  0  0  0  0  0
   19.7005   12.9933   41.8658 C   0  0  2  0  0  0  0  0  0  0  0  0
   16.0875   10.5963   44.6432 N   0  0  0  0  0  0  0  0  0  0  0  0
   15.9643   11.3483   43.5047 C   0  0  0  0  0  0  0  0  0  0  0  0
   17.0528   11.9486   42.9428 N   0  0  0  0  0  0  0  0  0  0  0  0
   18.2588   11.7849   43.5378 C   0  0  0  0  0  0  0  0  0  0  0  0
   18.4230   11.0375   44.6633 C   0  0  0  0  0  0  0  0  0  0  0  0
   17.2989   10.4209   45.2532 C   0  0  0  0  0  0  0  0  0  0  0  0
   17.3743    9.7417   46.3173 O   0  0  0  0  0  0  0  0  0  0  0  0
   19.7307   11.0197   45.0065 N   0  0  0  0  0  0  0  0  0  0  0  0
   20.3197   11.7859   44.0383 C   0  0  0  0  0  0  0  0  0  0  0  0
   19.4354   12.2957   43.1373 N   0  0  0  0  0  0  0  0  0  0  0  0
   22.8327   13.0065   38.8381 H   0  0  0  0  0  0  0  0  0  0  0  0
   22.8527   11.7874   40.1792 H   0  0  0  0  0  0  0  0  0  0  0  0
   22.5288   10.8560   38.1166 H   0  0  0  0  0  0  0  0  0  0  0  0
   20.2724   13.1796   39.2715 H   0  0  0  0  0  0  0  0  0  0  0  0
   22.4626   14.2591   41.1194 H   0  0  0  0  0  0  0  0  0  0  0  0
   22.1550   15.7608   39.6876 H   0  0  0  0  0  0  0  0  0  0  0  0
   21.1043   14.3030   42.9248 H   0  0  0  0  0  0  0  0  0  0  0  0
   18.6959   15.1335   42.1849 H   0  0  0  0  0  0  0  0  0  0  0  0
   18.7283   13.1836   41.3550 H   0  0  0  0  0  0  0  0  0  0  0  0
   15.2332   10.1546   45.0521 H   0  0  0  0  0  0  0  0  0  0  0  0
   14.9932   11.4706   43.0433 H   0  0  0  0  0  0  0  0  0  0  0  0
   21.3892   11.9401   43.9818 H   0  0  0  0  0  0  0  0  0  0  0  0
  2  1  1  0
  3  1  1  0
  4  3  1  0
  5  3  1  0
  5  6  1  0
  7  5  1  0
  7  8  1  0
  9  7  1  0
  9  4  1  0
 11 10  1  0
 12 11  2  0
 13 12  1  0
 14 13  2  0
 15 10  1  0
 15 14  1  0
 16 15  2  0
 17 14  1  0
 18 17  2  0
 19 13  1  0
  9 19  1  0
 19 18  1  0
  1 20  1  0
  1 21  1  0
  2 22  1  0
  3 23  1  6
  5 24  1  1
  6 25  1  0
  7 26  1  1
  8 27  1  0
  9 28  1  6
 10 29  1  0
 11 30  1  0
 18 31  1  0
M  END
