
     RDKit          3D

 31 33  0  0  0  0  0  0  0  0999 V2000
   30.5725   44.1257   27.7489 C   0  0  0  0  0  0  0  0  0  0  0  0
   31.8641   44.5168   27.3546 O   0  0  0  0  0  0  0  0  0  0  0  0
   30.2721   44.6588   29.1546 C   0  0  1  0  0  0  0  0  0  0  0  0
   30.2329   46.0625   29.1319 O   0  0  0  0  0  0  0  0  0  0  0  0
   28.9303   44.1810   29.7125 C   0  0  1  0  0  0  0  0  0  0  0  0
   29.1184   43.0300   30.5055 O   0  0  0  0  0  0  0  0  0  0  0  0
   28.4291   45.3942   30.5113 C   0  0  1  0  0  0  0  0  0  0  0  0
   28.2876   45.1091   31.8810 O   0  0  0  0  0  0  0  0  0  0  0  0
   29.5435   46.4310   30.2985 C   0  0  2  0  0  0  0  0  0  0  0  0
   30.6943   51.4700   30.6415 N   0  0  0  0  0  0  0  0  0  0  0  0
   31.4127   50.3927   31.1018 C   0  0  0  0  0  0  0  0  0  0  0  0
   30.9274   49.1180   30.9676 N   0  0  0  0  0  0  0  0  0  0  0  0
   29.7154   48.9496   30.3753 C   0  0  0  0  0  0  0  0  0  0  0  0
   28.9838   49.9952   29.9113 C   0  0  0  0  0  0  0  0  0  0  0  0
   29.4714   51.3019   30.0466 C   0  0  0  0  0  0  0  0  0  0  0  0
   28.8102   52.2984   29.6361 O   0  0  0  0  0  0  0  0  0  0  0  0
   27.8388   49.5501   29.3489 N   0  0  0  0  0  0  0  0  0  0  0  0
   27.9259   48.1985   29.4903 C   0  0  0  0  0  0  0  0  0  0  0  0
   29.0518   47.8008   30.1412 N   0  0  0  0  0  0  0  0  0  0  0  0
   30.4817   43.0155   27.7321 H   0  0  0  0  0  0  0  0  0  0  0  0
   29.8390   44.5423   27.0257 H   0  0  0  0  0  0  0  0  0  0  0  0
   32.0101   44.1416   26.4470 H   0  0  0  0  0  0  0  0  0  0  0  0
   31.0974   44.3356   29.8328 H   0  0  0  0  0  0  0  0  0  0  0  0
   28.2184   43.9670   28.8798 H   0  0  0  0  0  0  0  0  0  0  0  0
   29.9614   43.1713   31.0100 H   0  0  0  0  0  0  0  0  0  0  0  0
   27.4613   45.7480   30.0882 H   0  0  0  0  0  0  0  0  0  0  0  0
   28.0518   44.1471   31.9470 H   0  0  0  0  0  0  0  0  0  0  0  0
   30.2547   46.3951   31.1576 H   0  0  0  0  0  0  0  0  0  0  0  0
   31.0884   52.4310   30.7556 H   0  0  0  0  0  0  0  0  0  0  0  0
   32.3749   50.5485   31.5715 H   0  0  0  0  0  0  0  0  0  0  0  0
   27.1860   47.5172   29.0912 H   0  0  0  0  0  0  0  0  0  0  0  0
  2  1  1  0
  3  1  1  0
  4  3  1  0
  5  3  1  0
  5  6  1  0
  7  5  1  0
  7  8  1  0
  9  7  1  0
  9  4  1  0
 11 10  1  0
 12 11  2  0
 13 12  1  0
 14 13  2  0
 15 14  1  0
 15 10  1  0
 16 15  2  0
 17 14  1  0
 18 17  2  0
 19 18  1  0
 19 13  1  0
  9 19  1  0
  1 20  1  0
  1 21  1  0
  2 22  1  0
  3 23  1  1
  5 24  1  6
  6 25  1  0
  7 26  1  6
  8 27  1  0
  9 28  1  1
 10 29  1  0
 11 30  1  0
 18 31  1  0
M  END
