
     RDKit          3D

 31 33  0  0  0  0  0  0  0  0999 V2000
   30.5989   43.9826   27.6275 C   0  0  0  0  0  0  0  0  0  0  0  0
   31.8906   44.3736   27.2332 O   0  0  0  0  0  0  0  0  0  0  0  0
   30.2986   44.5156   29.0332 C   0  0  1  0  0  0  0  0  0  0  0  0
   30.3563   45.9189   29.0314 O   0  0  0  0  0  0  0  0  0  0  0  0
   28.9128   44.1238   29.5491 C   0  0  1  0  0  0  0  0  0  0  0  0
   29.0005   42.9518   30.3287 O   0  0  0  0  0  0  0  0  0  0  0  0
   28.4749   45.3575   30.3537 C   0  0  1  0  0  0  0  0  0  0  0  0
   28.2779   45.0640   31.7147 O   0  0  0  0  0  0  0  0  0  0  0  0
   29.6630   46.3179   30.1855 C   0  0  2  0  0  0  0  0  0  0  0  0
   31.2241   51.2538   30.3696 N   0  0  0  0  0  0  0  0  0  0  0  0
   31.8845   50.1284   30.8009 C   0  0  0  0  0  0  0  0  0  0  0  0
   31.2934   48.8947   30.7194 N   0  0  0  0  0  0  0  0  0  0  0  0
   30.0359   48.8158   30.2090 C   0  0  0  0  0  0  0  0  0  0  0  0
   29.3596   49.9104   29.7753 C   0  0  0  0  0  0  0  0  0  0  0  0
   29.9556   51.1759   29.8571 C   0  0  0  0  0  0  0  0  0  0  0  0
   29.3491   52.2168   29.4731 O   0  0  0  0  0  0  0  0  0  0  0  0
   28.1492   49.5507   29.2949 N   0  0  0  0  0  0  0  0  0  0  0  0
   28.1393   48.1983   29.4531 C   0  0  0  0  0  0  0  0  0  0  0  0
   29.2707   47.7203   30.0371 N   0  0  0  0  0  0  0  0  0  0  0  0
   30.5082   42.8723   27.6107 H   0  0  0  0  0  0  0  0  0  0  0  0
   29.8655   44.3992   26.9043 H   0  0  0  0  0  0  0  0  0  0  0  0
   32.3951   43.5395   27.0449 H   0  0  0  0  0  0  0  0  0  0  0  0
   31.0815   44.1270   29.7271 H   0  0  0  0  0  0  0  0  0  0  0  0
   28.2104   43.9709   28.6953 H   0  0  0  0  0  0  0  0  0  0  0  0
   29.8099   42.4682   30.0185 H   0  0  0  0  0  0  0  0  0  0  0  0
   27.5452   45.7829   29.9116 H   0  0  0  0  0  0  0  0  0  0  0  0
   28.3472   44.0778   31.8044 H   0  0  0  0  0  0  0  0  0  0  0  0
   30.3470   46.2212   31.0619 H   0  0  0  0  0  0  0  0  0  0  0  0
   31.6988   52.1818   30.4420 H   0  0  0  0  0  0  0  0  0  0  0  0
   32.8846   50.2131   31.2053 H   0  0  0  0  0  0  0  0  0  0  0  0
   27.3240   47.5730   29.1137 H   0  0  0  0  0  0  0  0  0  0  0  0
  2  1  1  0
  3  1  1  0
  4  3  1  0
  5  3  1  0
  5  6  1  0
  7  5  1  0
  7  8  1  0
  9  7  1  0
  9  4  1  0
 11 10  1  0
 12 11  2  0
 13 12  1  0
 14 13  2  0
 15 14  1  0
 15 10  1  0
 16 15  2  0
 17 14  1  0
 18 17  2  0
 19 18  1  0
 19 13  1  0
  9 19  1  0
  1 20  1  0
  1 21  1  0
  2 22  1  0
  3 23  1  1
  5 24  1  6
  6 25  1  0
  7 26  1  6
  8 27  1  0
  9 28  1  1
 10 29  1  0
 11 30  1  0
 18 31  1  0
M  END
