
     RDKit          3D

 32 34  0  0  0  0  0  0  0  0999 V2000
   36.0087    0.3162   14.8224 Cl  0  0  0  0  0  0  0  0  0  0  0  0
   33.5278   -0.0493   19.5912 Cl  0  0  0  0  0  0  0  0  0  0  0  0
   33.3403   -0.3558   15.0305 C   0  0  0  0  0  0  0  0  0  0  0  0
   28.6156   -1.7239   19.2314 N   0  0  0  0  0  0  0  0  0  0  0  0
   33.3697   -0.4332   13.6272 O   0  0  0  0  0  0  0  0  0  0  0  0
   32.1703   -0.6129   15.7894 C   0  0  0  0  0  0  0  0  0  0  0  0
   30.2445   -1.9441   17.5228 N   0  0  0  0  0  0  0  0  0  0  0  0
   32.1741   -0.4870   17.1984 C   0  0  0  0  0  0  0  0  0  0  0  0
   28.9210    0.1100   20.7405 N   0  0  0  0  0  0  0  0  0  0  0  0
   33.3868   -0.1528   17.8438 C   0  0  0  0  0  0  0  0  0  0  0  0
   32.8141    2.5677   19.5563 N   0  0  0  0  0  0  0  0  0  0  0  0
   34.5419    0.0871   17.0925 C   0  0  0  0  0  0  0  0  0  0  0  0
   34.5227   -0.0072   15.7015 C   0  0  0  0  0  0  0  0  0  0  0  0
   33.1396    0.6706   12.7594 C   0  0  0  0  0  0  0  0  0  0  0  0
   30.9494   -0.8571   17.9600 C   0  0  0  0  0  0  0  0  0  0  0  0
   29.1095   -2.3850   18.1465 C   0  0  0  0  0  0  0  0  0  0  0  0
   28.3876   -3.5719   17.6074 C   0  0  0  0  0  0  0  0  0  0  0  0
   29.2864   -0.6378   19.6859 C   0  0  0  0  0  0  0  0  0  0  0  0
   30.4412   -0.1727   19.0945 C   0  0  0  0  0  0  0  0  0  0  0  0
   30.8027    0.9532   19.8463 C   0  0  0  0  0  0  0  0  0  0  0  0
   29.8457    1.0877   20.8468 C   0  0  0  0  0  0  0  0  0  0  0  0
   31.9178    1.8457   19.6769 C   0  0  0  0  0  0  0  0  0  0  0  0
   31.2527   -0.9009   15.2932 H   0  0  0  0  0  0  0  0  0  0  0  0
   28.0879   -0.0319   21.3537 H   0  0  0  0  0  0  0  0  0  0  0  0
   35.4648    0.3460   17.5971 H   0  0  0  0  0  0  0  0  0  0  0  0
   33.2258    1.6121   13.3395 H   0  0  0  0  0  0  0  0  0  0  0  0
   32.1181    0.6103   12.3280 H   0  0  0  0  0  0  0  0  0  0  0  0
   33.8973    0.6821   11.9477 H   0  0  0  0  0  0  0  0  0  0  0  0
   27.4830   -3.2492   17.0498 H   0  0  0  0  0  0  0  0  0  0  0  0
   29.0460   -4.1407   16.9174 H   0  0  0  0  0  0  0  0  0  0  0  0
   28.0828   -4.2309   18.4467 H   0  0  0  0  0  0  0  0  0  0  0  0
   29.8248    1.8597   21.6055 H   0  0  0  0  0  0  0  0  0  0  0  0
  5  3  1  0
  6  3  2  0
  8  6  1  0
 10  8  2  0
 10  2  1  0
 12 10  1  0
 13  3  1  0
 13  1  1  0
 13 12  2  0
 14  5  1  0
 15  8  1  0
 15  7  2  0
 16  7  1  0
 16  4  2  0
 17 16  1  0
 18  9  1  0
 18  4  1  0
 19 18  2  0
 19 15  1  0
 20 19  1  0
 21 20  2  0
 21  9  1  0
 22 20  1  0
 22 11  3  0
  6 23  1  0
  9 24  1  0
 12 25  1  0
 14 26  1  0
 14 27  1  0
 14 28  1  0
 17 29  1  0
 17 30  1  0
 17 31  1  0
 21 32  1  0
M  END
