
     RDKit          3D

 17 17  0  0  0  0  0  0  0  0999 V2000
    5.4111   49.4461   76.7644 N   0  0  0  0  0  0  0  0  0  0  0  0
    5.6537   48.0491   76.6399 C   0  0  0  0  0  0  0  0  0  0  0  0
    5.1151   47.2377   77.4316 O   0  0  0  0  0  0  0  0  0  0  0  0
    6.5084   47.5705   75.6162 N   0  0  0  0  0  0  0  0  0  0  0  0
    7.0403   48.4674   74.6533 C   0  0  0  0  0  0  0  0  0  0  0  0
    7.8052   48.0314   73.7586 O   0  0  0  0  0  0  0  0  0  0  0  0
    6.6192   49.9006   74.6373 C   0  0  0  0  0  0  0  0  0  0  0  0
    6.2440   50.4095   76.0384 C   0  0  1  0  0  0  0  0  0  0  0  0
    5.5263   51.7082   75.8785 C   0  0  0  0  0  0  0  0  0  0  0  0
    5.5099   52.5324   76.8290 O   0  0  0  0  0  0  0  0  0  0  0  0
    4.9661   52.0436   74.6571 O   0  0  0  0  0  0  0  0  0  0  0  0
    4.8082   49.7775   77.5520 H   0  0  0  0  0  0  0  0  0  0  0  0
    6.7396   46.5526   75.5640 H   0  0  0  0  0  0  0  0  0  0  0  0
    7.4409   50.5261   74.2234 H   0  0  0  0  0  0  0  0  0  0  0  0
    5.7450   49.9812   73.9536 H   0  0  0  0  0  0  0  0  0  0  0  0
    7.1755   50.5769   76.6235 H   0  0  0  0  0  0  0  0  0  0  0  0
    4.0839   51.6425   74.3622 H   0  0  0  0  0  0  0  0  0  0  0  0
  2  1  1  0
  3  2  2  0
  4  2  1  0
  5  4  1  0
  6  5  2  0
  7  5  1  0
  8  7  1  0
  8  1  1  0
  8  9  1  0
 10  9  2  0
 11  9  1  0
  1 12  1  0
  4 13  1  0
  7 14  1  0
  7 15  1  0
  8 16  1  1
 11 17  1  0
M  END
