
     RDKit          3D

 61 65  0  0  0  0  0  0  0  0999 V2000
   43.9484    0.2807   16.6213 C   0  0  0  0  0  0  0  0  0  0  0  0
   44.0538    1.6759   16.7406 C   0  0  0  0  0  0  0  0  0  0  0  0
   42.9623    2.5078   16.4139 C   0  0  0  0  0  0  0  0  0  0  0  0
   43.0787    3.8871   16.5291 O   0  0  0  0  0  0  0  0  0  0  0  0
   41.7529    1.9532   15.9683 C   0  0  0  0  0  0  0  0  0  0  0  0
   41.6643    0.5710   15.8569 C   0  0  0  0  0  0  0  0  0  0  0  0
   40.3416   -0.3232   15.3359 S   0  0  0  0  0  0  0  0  0  0  0  0
   41.0993   -1.8279   15.5052 C   0  0  0  0  0  0  0  0  0  0  0  0
   40.4564   -3.1045   15.1292 C   0  0  0  0  0  0  0  0  0  0  0  0
   40.7575   -3.6714   13.8803 C   0  0  0  0  0  0  0  0  0  0  0  0
   40.2116   -4.9000   13.5119 C   0  0  0  0  0  0  0  0  0  0  0  0
   39.3436   -5.5671   14.3818 C   0  0  0  0  0  0  0  0  0  0  0  0
   38.8074   -6.7987   14.0268 O   0  0  0  0  0  0  0  0  0  0  0  0
   39.0177   -4.9992   15.6188 C   0  0  0  0  0  0  0  0  0  0  0  0
   39.5753   -3.7727   15.9972 C   0  0  0  0  0  0  0  0  0  0  0  0
   42.7328   -0.2674   16.1664 C   0  0  0  0  0  0  0  0  0  0  0  0
   42.4235   -1.6297   15.9515 C   0  0  0  0  0  0  0  0  0  0  0  0
   43.3602   -2.7208   16.2540 C   0  0  0  0  0  0  0  0  0  0  0  0
   43.8501   -3.4014   15.3150 O   0  0  0  0  0  0  0  0  0  0  0  0
   43.7097   -3.0088   17.6538 C   0  0  0  0  0  0  0  0  0  0  0  0
   45.0391   -2.9300   18.0857 C   0  0  0  0  0  0  0  0  0  0  0  0
   45.3533   -3.1889   19.4133 C   0  0  0  0  0  0  0  0  0  0  0  0
   44.3401   -3.5416   20.3245 C   0  0  0  0  0  0  0  0  0  0  0  0
   43.0191   -3.6289   19.8938 C   0  0  0  0  0  0  0  0  0  0  0  0
   42.7018   -3.3616   18.5701 C   0  0  0  0  0  0  0  0  0  0  0  0
   44.6154   -3.8160   21.6582 O   0  0  0  0  0  0  0  0  0  0  0  0
   44.7806   -2.7977   22.6314 C   0  0  0  0  0  0  0  0  0  0  0  0
   45.9457   -3.1406   23.5296 C   0  0  0  0  0  0  0  0  0  0  0  0
   45.4932   -3.7222   24.8063 N   0  0  0  0  0  0  0  0  0  0  0  0
   45.8898   -2.7849   25.8788 C   0  0  0  0  0  0  0  0  0  0  0  0
   45.4690   -3.2966   27.2501 C   0  0  0  0  0  0  0  0  0  0  0  0
   46.0829   -4.6706   27.5013 C   0  0  0  0  0  0  0  0  0  0  0  0
   45.7097   -5.6359   26.3764 C   0  0  0  0  0  0  0  0  0  0  0  0
   46.1061   -5.0567   25.0167 C   0  0  0  0  0  0  0  0  0  0  0  0
   44.7920   -0.3518   16.8659 H   0  0  0  0  0  0  0  0  0  0  0  0
   44.9839    2.1103   17.0840 H   0  0  0  0  0  0  0  0  0  0  0  0
   43.9368    4.3226   16.8468 H   0  0  0  0  0  0  0  0  0  0  0  0
   40.9114    2.5853   15.7151 H   0  0  0  0  0  0  0  0  0  0  0  0
   41.4381   -3.1739   13.2000 H   0  0  0  0  0  0  0  0  0  0  0  0
   40.4659   -5.3336   12.5530 H   0  0  0  0  0  0  0  0  0  0  0  0
   37.8066   -6.9417   13.9558 H   0  0  0  0  0  0  0  0  0  0  0  0
   38.3425   -5.5131   16.2911 H   0  0  0  0  0  0  0  0  0  0  0  0
   39.3197   -3.3451   16.9583 H   0  0  0  0  0  0  0  0  0  0  0  0
   45.8307   -2.6546   17.3996 H   0  0  0  0  0  0  0  0  0  0  0  0
   46.3879   -3.0991   19.7075 H   0  0  0  0  0  0  0  0  0  0  0  0
   42.2370   -3.9045   20.5903 H   0  0  0  0  0  0  0  0  0  0  0  0
   41.6665   -3.4513   18.2682 H   0  0  0  0  0  0  0  0  0  0  0  0
   45.0403   -1.8407   22.1297 H   0  0  0  0  0  0  0  0  0  0  0  0
   43.8468   -2.6661   23.2208 H   0  0  0  0  0  0  0  0  0  0  0  0
   46.6614   -3.8116   23.0000 H   0  0  0  0  0  0  0  0  0  0  0  0
   46.4845   -2.1815   23.7129 H   0  0  0  0  0  0  0  0  0  0  0  0
   45.3897   -1.8016   25.7303 H   0  0  0  0  0  0  0  0  0  0  0  0
   46.9924   -2.6160   25.8725 H   0  0  0  0  0  0  0  0  0  0  0  0
   44.3599   -3.3643   27.3001 H   0  0  0  0  0  0  0  0  0  0  0  0
   45.8118   -2.5881   28.0349 H   0  0  0  0  0  0  0  0  0  0  0  0
   47.1900   -4.5826   27.5691 H   0  0  0  0  0  0  0  0  0  0  0  0
   45.7103   -5.0700   28.4690 H   0  0  0  0  0  0  0  0  0  0  0  0
   46.2292   -6.6058   26.5335 H   0  0  0  0  0  0  0  0  0  0  0  0
   44.6133   -5.8230   26.3942 H   0  0  0  0  0  0  0  0  0  0  0  0
   47.2173   -5.0025   24.9512 H   0  0  0  0  0  0  0  0  0  0  0  0
   45.7428   -5.7722   24.2521 H   0  0  0  0  0  0  0  0  0  0  0  0
  2  1  2  0
  3  2  1  0
  4  3  1  0
  5  3  2  0
  6  5  1  0
  7  6  1  0
  8  7  1  0
  9  8  1  0
 10  9  2  0
 11 10  1  0
 12 11  2  0
 13 12  1  0
 14 12  1  0
 15 14  2  0
 15  9  1  0
 16  6  2  0
 16  1  1  0
 17 16  1  0
 17  8  2  0
 18 17  1  0
 19 18  2  0
 20 18  1  0
 21 20  2  0
 22 21  1  0
 23 22  2  0
 24 23  1  0
 25 24  2  0
 25 20  1  0
 26 23  1  0
 27 26  1  0
 28 27  1  0
 29 28  1  0
 30 29  1  0
 31 30  1  0
 32 31  1  0
 33 32  1  0
 34 33  1  0
 34 29  1  0
  1 35  1  0
  2 36  1  0
  4 37  1  0
  5 38  1  0
 10 39  1  0
 11 40  1  0
 13 41  1  0
 14 42  1  0
 15 43  1  0
 21 44  1  0
 22 45  1  0
 24 46  1  0
 25 47  1  0
 27 48  1  0
 27 49  1  0
 28 50  1  0
 28 51  1  0
 30 52  1  0
 30 53  1  0
 31 54  1  0
 31 55  1  0
 32 56  1  0
 32 57  1  0
 33 58  1  0
 33 59  1  0
 34 60  1  0
 34 61  1  0
M  END
