
     RDKit          3D

 29 29  0  0  0  0  0  0  0  0999 V2000
   34.6186   -1.3770    7.7631 P   0  0  0  0  0  0  0  0  0  0  0  0
   35.1956   -2.6363    8.3628 O   0  0  0  0  0  0  0  0  0  0  0  0
   35.7274   -0.6955    6.7008 O   0  0  0  0  0  0  0  0  0  0  0  0
   34.2802   -0.2566    8.9857 O   0  0  0  0  0  0  0  0  0  0  0  0
   33.2797   -1.8196    6.8208 O   0  0  0  0  0  0  0  0  0  0  0  0
   30.5711   -0.5244    3.5476 N   0  0  0  0  0  0  0  0  0  0  0  0
   29.5442   -1.4038    3.5926 C   0  0  0  0  0  0  0  0  0  0  0  0
   28.6232   -1.4903    2.4147 C   0  0  0  0  0  0  0  0  0  0  0  0
   29.3706   -2.2119    4.7279 C   0  0  0  0  0  0  0  0  0  0  0  0
   28.3300   -3.1414    4.7948 O   0  0  0  0  0  0  0  0  0  0  0  0
   30.2495   -2.0907    5.8249 C   0  0  0  0  0  0  0  0  0  0  0  0
   29.9637   -3.0439    6.9802 C   0  0  0  0  0  0  0  0  0  0  0  0
   30.7952   -2.8723    8.1514 N   0  0  0  0  0  0  0  0  0  0  0  0
   31.2957   -1.1201    5.7555 C   0  0  0  0  0  0  0  0  0  0  0  0
   32.2952   -0.8287    6.8524 C   0  0  0  0  0  0  0  0  0  0  0  0
   31.4369   -0.3749    4.5738 C   0  0  0  0  0  0  0  0  0  0  0  0
   35.8691   -1.3849    6.0038 H   0  0  0  0  0  0  0  0  0  0  0  0
   33.7996   -0.7759    9.6786 H   0  0  0  0  0  0  0  0  0  0  0  0
   29.0571   -2.1422    1.6268 H   0  0  0  0  0  0  0  0  0  0  0  0
   28.4655   -0.4802    1.9815 H   0  0  0  0  0  0  0  0  0  0  0  0
   27.6492   -1.9226    2.7264 H   0  0  0  0  0  0  0  0  0  0  0  0
   27.6625   -3.2855    4.0481 H   0  0  0  0  0  0  0  0  0  0  0  0
   30.1057   -4.0808    6.5983 H   0  0  0  0  0  0  0  0  0  0  0  0
   28.8928   -2.9510    7.2742 H   0  0  0  0  0  0  0  0  0  0  0  0
   31.3735   -3.7352    8.2748 H   0  0  0  0  0  0  0  0  0  0  0  0
   30.1716   -2.8294    8.9907 H   0  0  0  0  0  0  0  0  0  0  0  0
   32.7433    0.1761    6.6703 H   0  0  0  0  0  0  0  0  0  0  0  0
   31.8129   -0.7506    7.8452 H   0  0  0  0  0  0  0  0  0  0  0  0
   32.2357    0.3484    4.4670 H   0  0  0  0  0  0  0  0  0  0  0  0
  2  1  2  0
  3  1  1  0
  4  1  1  0
  5  1  1  0
  7  6  2  0
  8  7  1  0
  9  7  1  0
 10  9  1  0
 11  9  2  0
 12 11  1  0
 13 12  1  0
 14 11  1  0
 15 14  1  0
 15  5  1  0
 16  6  1  0
 16 14  2  0
  3 17  1  0
  4 18  1  0
  8 19  1  0
  8 20  1  0
  8 21  1  0
 10 22  1  0
 12 23  1  0
 12 24  1  0
 13 25  1  0
 13 26  1  0
 15 27  1  0
 15 28  1  0
 16 29  1  0
M  END
