
     RDKit          3D

 29 29  0  0  0  0  0  0  0  0999 V2000
   35.1784   -0.8958    7.9578 P   0  0  0  0  0  0  0  0  0  0  0  0
   35.8324   -2.1527    8.4781 O   0  0  0  0  0  0  0  0  0  0  0  0
   36.2109   -0.1238    6.8805 O   0  0  0  0  0  0  0  0  0  0  0  0
   34.8476    0.1577    9.2405 O   0  0  0  0  0  0  0  0  0  0  0  0
   33.8191   -1.3563    7.0541 O   0  0  0  0  0  0  0  0  0  0  0  0
   30.0938   -0.2902    4.8832 N   0  0  0  0  0  0  0  0  0  0  0  0
   29.3810   -1.4395    4.8531 C   0  0  0  0  0  0  0  0  0  0  0  0
   28.2336   -1.5459    3.8964 C   0  0  0  0  0  0  0  0  0  0  0  0
   29.7334   -2.4982    5.7058 C   0  0  0  0  0  0  0  0  0  0  0  0
   29.0267   -3.7029    5.6839 O   0  0  0  0  0  0  0  0  0  0  0  0
   30.8111   -2.3549    6.6050 C   0  0  0  0  0  0  0  0  0  0  0  0
   31.1023   -3.5877    7.4539 C   0  0  0  0  0  0  0  0  0  0  0  0
   31.7078   -3.3296    8.7421 N   0  0  0  0  0  0  0  0  0  0  0  0
   31.5115   -1.1100    6.6360 C   0  0  0  0  0  0  0  0  0  0  0  0
   32.6571   -0.7716    7.5636 C   0  0  0  0  0  0  0  0  0  0  0  0
   31.1331   -0.1089    5.7269 C   0  0  0  0  0  0  0  0  0  0  0  0
   36.7934   -0.8427    6.5268 H   0  0  0  0  0  0  0  0  0  0  0  0
   35.3594   -0.2073   10.0058 H   0  0  0  0  0  0  0  0  0  0  0  0
   27.5759   -2.3988    4.1688 H   0  0  0  0  0  0  0  0  0  0  0  0
   28.6127   -1.7150    2.8666 H   0  0  0  0  0  0  0  0  0  0  0  0
   27.6277   -0.6159    3.9266 H   0  0  0  0  0  0  0  0  0  0  0  0
   29.4631   -4.6023    5.5270 H   0  0  0  0  0  0  0  0  0  0  0  0
   31.7895   -4.2398    6.8679 H   0  0  0  0  0  0  0  0  0  0  0  0
   30.1583   -4.1614    7.6010 H   0  0  0  0  0  0  0  0  0  0  0  0
   32.4349   -2.5872    8.6222 H   0  0  0  0  0  0  0  0  0  0  0  0
   32.2288   -4.1885    9.0355 H   0  0  0  0  0  0  0  0  0  0  0  0
   32.7634    0.3375    7.6106 H   0  0  0  0  0  0  0  0  0  0  0  0
   32.4549   -1.0835    8.6058 H   0  0  0  0  0  0  0  0  0  0  0  0
   31.6581    0.8376    5.6948 H   0  0  0  0  0  0  0  0  0  0  0  0
  2  1  2  0
  3  1  1  0
  4  1  1  0
  5  1  1  0
  7  6  2  0
  8  7  1  0
  9  7  1  0
 10  9  1  0
 11  9  2  0
 12 11  1  0
 13 12  1  0
 14 11  1  0
 15 14  1  0
 15  5  1  0
 16  6  1  0
 16 14  2  0
  3 17  1  0
  4 18  1  0
  8 19  1  0
  8 20  1  0
  8 21  1  0
 10 22  1  0
 12 23  1  0
 12 24  1  0
 13 25  1  0
 13 26  1  0
 15 27  1  0
 15 28  1  0
 16 29  1  0
M  END
