
     RDKit          3D

 29 29  0  0  0  0  0  0  0  0999 V2000
   47.1983   11.4141   22.5282 P   0  0  0  0  0  0  0  0  0  0  0  0
   48.4199   11.1890   21.6712 O   0  0  0  0  0  0  0  0  0  0  0  0
   46.9838   10.1282   23.5843 O   0  0  0  0  0  0  0  0  0  0  0  0
   45.8238   11.5461   21.5589 O   0  0  0  0  0  0  0  0  0  0  0  0
   47.4981   12.7651   23.4988 O   0  0  0  0  0  0  0  0  0  0  0  0
   46.0125   15.7645   26.4491 N   0  0  0  0  0  0  0  0  0  0  0  0
   47.0520   16.6315   26.4651 C   0  0  0  0  0  0  0  0  0  0  0  0
   47.1363   17.6118   27.5973 C   0  0  0  0  0  0  0  0  0  0  0  0
   48.0171   16.5929   25.4343 C   0  0  0  0  0  0  0  0  0  0  0  0
   49.1021   17.4700   25.4562 O   0  0  0  0  0  0  0  0  0  0  0  0
   47.8699   15.6595   24.3715 C   0  0  0  0  0  0  0  0  0  0  0  0
   48.9516   15.4581   23.3087 C   0  0  0  0  0  0  0  0  0  0  0  0
   48.6208   16.0526   22.0262 N   0  0  0  0  0  0  0  0  0  0  0  0
   46.7442   14.7917   24.3925 C   0  0  0  0  0  0  0  0  0  0  0  0
   46.4960   13.7268   23.3506 C   0  0  0  0  0  0  0  0  0  0  0  0
   45.8478   14.8575   25.4645 C   0  0  0  0  0  0  0  0  0  0  0  0
   46.0981    9.7534   23.3476 H   0  0  0  0  0  0  0  0  0  0  0  0
   45.7376   10.6621   21.1207 H   0  0  0  0  0  0  0  0  0  0  0  0
   47.6501   18.5366   27.2604 H   0  0  0  0  0  0  0  0  0  0  0  0
   46.1205   17.8886   27.9519 H   0  0  0  0  0  0  0  0  0  0  0  0
   47.6905   17.1613   28.4474 H   0  0  0  0  0  0  0  0  0  0  0  0
   49.2563   18.1516   26.1879 H   0  0  0  0  0  0  0  0  0  0  0  0
   49.9003   15.8949   23.6933 H   0  0  0  0  0  0  0  0  0  0  0  0
   49.1580   14.3854   23.1336 H   0  0  0  0  0  0  0  0  0  0  0  0
   49.3293   15.7423   21.3219 H   0  0  0  0  0  0  0  0  0  0  0  0
   47.7100   15.6557   21.6980 H   0  0  0  0  0  0  0  0  0  0  0  0
   45.4868   13.2808   23.5119 H   0  0  0  0  0  0  0  0  0  0  0  0
   46.4897   14.1541   22.3259 H   0  0  0  0  0  0  0  0  0  0  0  0
   44.9996   14.1869   25.5203 H   0  0  0  0  0  0  0  0  0  0  0  0
  2  1  2  0
  3  1  1  0
  4  1  1  0
  5  1  1  0
  7  6  2  0
  8  7  1  0
  9  7  1  0
 10  9  1  0
 11  9  2  0
 12 11  1  0
 13 12  1  0
 14 11  1  0
 15 14  1  0
 15  5  1  0
 16 14  2  0
 16  6  1  0
  3 17  1  0
  4 18  1  0
  8 19  1  0
  8 20  1  0
  8 21  1  0
 10 22  1  0
 12 23  1  0
 12 24  1  0
 13 25  1  0
 13 26  1  0
 15 27  1  0
 15 28  1  0
 16 29  1  0
M  END
