
     RDKit          3D

 60 65  0  0  0  0  0  0  0  0999 V2000
    2.6067  -33.9617  -18.4731 C   0  0  0  0  0  0  0  0  0  0  0  0
    4.0183  -31.9355  -18.0978 C   0  0  0  0  0  0  0  0  0  0  0  0
    3.7889  -33.0984  -18.8537 C   0  0  0  0  0  0  0  0  0  0  0  0
    4.6691  -33.4059  -19.9376 C   0  0  0  0  0  0  0  0  0  0  0  0
    4.5334  -34.5384  -20.7752 C   0  0  0  0  0  0  0  0  0  0  0  0
    5.3228  -35.9817  -22.5478 C   0  0  0  0  0  0  0  0  0  0  0  0
    6.2035  -37.0157  -22.2145 C   0  0  0  0  0  0  0  0  0  0  0  0
    6.1532  -38.2286  -22.8946 C   0  0  0  0  0  0  0  0  0  0  0  0
    5.0919  -31.0950  -18.3842 C   0  0  0  0  0  0  0  0  0  0  0  0
    5.9581  -31.3952  -19.4325 C   0  0  0  0  0  0  0  0  0  0  0  0
    5.7516  -32.5378  -20.2098 C   0  0  0  0  0  0  0  0  0  0  0  0
    6.4494  -33.8921  -22.0327 C   0  0  0  0  0  0  0  0  0  0  0  0
    4.3801  -36.1607  -23.5865 C   0  0  0  0  0  0  0  0  0  0  0  0
    4.3328  -37.3948  -24.2595 C   0  0  0  0  0  0  0  0  0  0  0  0
    5.2181  -38.4197  -23.9129 C   0  0  0  0  0  0  0  0  0  0  0  0
    7.4448  -34.1310  -23.1492 C   0  0  0  0  0  0  0  0  0  0  0  0
    3.4203  -35.0650  -23.9586 C   0  0  0  0  0  0  0  0  0  0  0  0
    5.4139  -34.7562  -21.8035 N   0  0  0  0  0  0  0  0  0  0  0  0
    6.6035  -32.8068  -21.2299 N   0  0  0  0  0  0  0  0  0  0  0  0
    9.0712  -32.4082  -22.5983 N   0  0  0  0  0  0  0  0  0  0  0  0
    8.1673  -32.9035  -23.4193 N   0  0  0  0  0  0  0  0  0  0  0  0
    3.6005  -35.3635  -20.5877 O   0  0  0  0  0  0  0  0  0  0  0  0
   13.6952  -28.7653  -22.4363 O   0  0  0  0  0  0  0  0  0  0  0  0
   12.5097  -29.2753  -21.9239 C   0  0  0  0  0  0  0  0  0  0  0  0
   11.5848  -29.8981  -22.7805 C   0  0  0  0  0  0  0  0  0  0  0  0
   10.3829  -30.3956  -22.2592 C   0  0  0  0  0  0  0  0  0  0  0  0
    9.4474  -31.1954  -23.0517 C   0  0  0  0  0  0  0  0  0  0  0  0
   12.2454  -29.1710  -20.5540 C   0  0  0  0  0  0  0  0  0  0  0  0
   11.0643  -29.6903  -20.0341 C   0  0  0  0  0  0  0  0  0  0  0  0
   10.1453  -30.3111  -20.8774 C   0  0  0  0  0  0  0  0  0  0  0  0
    9.3484  -28.6599  -25.0048 N   0  0  0  0  0  0  0  0  0  0  0  0
    7.0109  -32.1204  -25.3779 N   0  0  0  0  0  0  0  0  0  0  0  0
    6.8917  -31.0906  -26.2591 C   0  0  0  0  0  0  0  0  0  0  0  0
    7.6651  -29.9726  -26.1213 N   0  0  0  0  0  0  0  0  0  0  0  0
    8.5731  -29.8435  -25.1093 C   0  0  0  0  0  0  0  0  0  0  0  0
    8.7071  -30.9036  -24.2077 C   0  0  0  0  0  0  0  0  0  0  0  0
    7.9196  -32.0065  -24.3799 C   0  0  0  0  0  0  0  0  0  0  0  0
   10.8088  -29.5884  -18.7090 F   0  0  0  0  0  0  0  0  0  0  0  0
    2.9604  -34.9295  -18.0600 H   0  0  0  0  0  0  0  0  0  0  0  0
    1.9779  -33.4815  -17.6932 H   0  0  0  0  0  0  0  0  0  0  0  0
    1.9597  -34.1317  -19.3590 H   0  0  0  0  0  0  0  0  0  0  0  0
    3.3650  -31.6742  -17.2742 H   0  0  0  0  0  0  0  0  0  0  0  0
    6.9289  -36.8781  -21.4222 H   0  0  0  0  0  0  0  0  0  0  0  0
    6.8369  -39.0253  -22.6313 H   0  0  0  0  0  0  0  0  0  0  0  0
    5.2548  -30.2059  -17.7887 H   0  0  0  0  0  0  0  0  0  0  0  0
    6.7898  -30.7340  -19.6444 H   0  0  0  0  0  0  0  0  0  0  0  0
    3.6133  -37.5635  -25.0511 H   0  0  0  0  0  0  0  0  0  0  0  0
    5.1786  -39.3659  -24.4369 H   0  0  0  0  0  0  0  0  0  0  0  0
    8.1563  -34.9253  -22.8379 H   0  0  0  0  0  0  0  0  0  0  0  0
    6.9437  -34.4626  -24.0828 H   0  0  0  0  0  0  0  0  0  0  0  0
    3.2078  -35.0658  -25.0488 H   0  0  0  0  0  0  0  0  0  0  0  0
    3.8474  -34.0751  -23.6948 H   0  0  0  0  0  0  0  0  0  0  0  0
    2.4670  -35.2063  -23.4080 H   0  0  0  0  0  0  0  0  0  0  0  0
   14.4826  -28.5439  -21.8379 H   0  0  0  0  0  0  0  0  0  0  0  0
   11.8078  -30.0019  -23.8353 H   0  0  0  0  0  0  0  0  0  0  0  0
   12.9568  -28.6905  -19.8941 H   0  0  0  0  0  0  0  0  0  0  0  0
    9.2387  -30.7237  -20.4493 H   0  0  0  0  0  0  0  0  0  0  0  0
    9.1774  -27.8481  -25.6386 H   0  0  0  0  0  0  0  0  0  0  0  0
    9.1774  -27.8481  -25.6387 H   0  0  0  0  0  0  0  0  0  0  0  0
    6.1787  -31.1557  -27.0693 H   0  0  0  0  0  0  0  0  0  0  0  0
  3  1  1  0
  3  2  2  0
  4  3  1  0
  5  4  1  0
  7  6  2  0
  8  7  1  0
  9  2  1  0
 10  9  2  0
 11  4  2  0
 11 10  1  0
 13  6  1  0
 14 13  2  0
 15 14  1  0
 15  8  2  0
 16 12  1  0
 17 13  1  0
 18  6  1  0
 18  5  1  0
 18 12  1  0
 19 12  2  0
 19 11  1  0
 21 16  1  0
 21 20  1  0
 22  5  2  0
 24 23  1  0
 25 24  2  0
 26 25  1  0
 27 26  1  0
 27 20  2  0
 28 24  1  0
 29 28  2  0
 30 26  2  0
 30 29  1  0
 33 32  1  0
 34 33  2  0
 35 34  1  0
 35 31  1  0
 36 35  2  0
 36 27  1  0
 37 32  2  0
 37 36  1  0
 37 21  1  0
 38 29  1  0
  1 39  1  0
  1 40  1  0
  1 41  1  0
  2 42  1  0
  7 43  1  0
  8 44  1  0
  9 45  1  0
 10 46  1  0
 14 47  1  0
 15 48  1  0
 16 49  1  0
 16 50  1  0
 17 51  1  0
 17 52  1  0
 17 53  1  0
 23 54  1  0
 25 55  1  0
 28 56  1  0
 30 57  1  0
 31 58  1  0
 31 59  1  0
 33 60  1  0
M  END
