
     RDKit          3D

 49 52  0  0  0  0  0  0  0  0999 V2000
   26.8680    5.0589    4.2977 C   0  0  0  0  0  0  0  0  0  0  0  0
   26.0786    6.3247    4.6078 C   0  0  0  0  0  0  0  0  0  0  0  0
   24.6638    6.1718    4.1595 C   0  0  0  0  0  0  0  0  0  0  0  0
   24.0151    7.1829    3.7898 O   0  0  0  0  0  0  0  0  0  0  0  0
   24.0142    4.8572    4.1718 C   0  0  0  0  0  0  0  0  0  0  0  0
   24.7028    3.7321    4.4262 C   0  0  0  0  0  0  0  0  0  0  0  0
   23.9545    2.4233    4.4666 C   0  0  0  0  0  0  0  0  0  0  0  0
   24.7450    1.3314    3.7556 C   0  0  0  0  0  0  0  0  0  0  0  0
   26.1465    1.1874    4.3695 C   0  0  2  0  0  0  0  0  0  0  0  0
   26.9278    2.5307    4.2232 C   0  0  1  0  0  0  0  0  0  0  0  0
   26.1807    3.7654    4.8397 C   0  0  1  0  0  0  0  0  0  0  0  0
   28.3970    2.3924    4.7195 C   0  0  0  0  0  0  0  0  0  0  0  0
   29.1382    1.2390    4.0217 C   0  0  0  0  0  0  0  0  0  0  0  0
   28.3713   -0.0839    4.1912 C   0  0  1  0  0  0  0  0  0  0  0  0
   26.9531    0.0936    3.6372 C   0  0  1  0  0  0  0  0  0  0  0  0
   26.4108   -1.3266    3.5588 C   0  0  0  0  0  0  0  0  0  0  0  0
   27.6468   -2.1610    3.1631 C   0  0  0  0  0  0  0  0  0  0  0  0
   28.8717   -1.2254    3.2916 C   0  0  2  0  0  0  0  0  0  0  0  0
   29.9873   -1.8862    3.8333 O   0  0  0  0  0  0  0  0  0  0  0  0
   28.4077   -0.5367    5.6844 C   0  0  0  0  0  0  0  0  0  0  0  0
   26.2376    3.7577    6.3853 C   0  0  0  0  0  0  0  0  0  0  0  0
   27.8789    5.1912    4.7359 H   0  0  0  0  0  0  0  0  0  0  0  0
   26.9886    4.9970    3.1928 H   0  0  0  0  0  0  0  0  0  0  0  0
   26.5487    7.1845    4.0823 H   0  0  0  0  0  0  0  0  0  0  0  0
   26.0980    6.5394    5.6970 H   0  0  0  0  0  0  0  0  0  0  0  0
   22.9587    4.8105    3.9301 H   0  0  0  0  0  0  0  0  0  0  0  0
   23.7843    2.1348    5.5264 H   0  0  0  0  0  0  0  0  0  0  0  0
   22.9587    2.5048    3.9773 H   0  0  0  0  0  0  0  0  0  0  0  0
   24.1888    0.3747    3.8593 H   0  0  0  0  0  0  0  0  0  0  0  0
   24.8168    1.5713    2.6711 H   0  0  0  0  0  0  0  0  0  0  0  0
   26.0253    0.9144    5.4372 H   0  0  0  0  0  0  0  0  0  0  0  0
   26.9958    2.7227    3.1264 H   0  0  0  0  0  0  0  0  0  0  0  0
   28.9709    3.3125    4.4940 H   0  0  0  0  0  0  0  0  0  0  0  0
   28.4363    2.2502    5.8173 H   0  0  0  0  0  0  0  0  0  0  0  0
   30.1628    1.1452    4.4434 H   0  0  0  0  0  0  0  0  0  0  0  0
   29.2480    1.4853    2.9420 H   0  0  0  0  0  0  0  0  0  0  0  0
   27.0338    0.4354    2.5741 H   0  0  0  0  0  0  0  0  0  0  0  0
   26.0042   -1.6522    4.5409 H   0  0  0  0  0  0  0  0  0  0  0  0
   25.6133   -1.4092    2.7887 H   0  0  0  0  0  0  0  0  0  0  0  0
   27.5543   -2.5258    2.1170 H   0  0  0  0  0  0  0  0  0  0  0  0
   27.7413   -3.0387    3.8395 H   0  0  0  0  0  0  0  0  0  0  0  0
   29.1315   -0.8240    2.2824 H   0  0  0  0  0  0  0  0  0  0  0  0
   29.8980   -2.8415    3.5792 H   0  0  0  0  0  0  0  0  0  0  0  0
   28.8445   -1.5431    5.8227 H   0  0  0  0  0  0  0  0  0  0  0  0
   27.3763   -0.5727    6.0956 H   0  0  0  0  0  0  0  0  0  0  0  0
   28.9878    0.1609    6.3225 H   0  0  0  0  0  0  0  0  0  0  0  0
   26.7609    4.6547    6.7744 H   0  0  0  0  0  0  0  0  0  0  0  0
   26.7893    2.8684    6.7576 H   0  0  0  0  0  0  0  0  0  0  0  0
   25.2206    3.7249    6.8292 H   0  0  0  0  0  0  0  0  0  0  0  0
  2  1  1  0
  3  2  1  0
  4  3  2  0
  5  3  1  0
  6  5  2  0
  7  6  1  0
  8  7  1  0
  9  8  1  0
 10  9  1  0
 11  6  1  0
 11 10  1  0
 11  1  1  0
 10 12  1  0
 13 12  1  0
 14 13  1  0
 15  9  1  0
 15 14  1  0
 15 16  1  0
 17 16  1  0
 18 17  1  0
 18 14  1  0
 18 19  1  0
 14 20  1  1
 11 21  1  1
  1 22  1  0
  1 23  1  0
  2 24  1  0
  2 25  1  0
  5 26  1  0
  7 27  1  0
  7 28  1  0
  8 29  1  0
  8 30  1  0
  9 31  1  1
 10 32  1  6
 12 33  1  0
 12 34  1  0
 13 35  1  0
 13 36  1  0
 15 37  1  6
 16 38  1  0
 16 39  1  0
 17 40  1  0
 17 41  1  0
 18 42  1  6
 19 43  1  0
 20 44  1  0
 20 45  1  0
 20 46  1  0
 21 47  1  0
 21 48  1  0
 21 49  1  0
M  END
