
     RDKit          3D

 37 38  0  0  0  0  0  0  0  0999 V2000
    2.2508  -10.6086   24.1541 N   0  0  0  0  0  0  0  0  0  0  0  0
    3.0231  -10.5728   25.3993 C   0  0  2  0  0  0  0  0  0  0  0  0
    2.2200   -8.1428   26.9610 C   0  0  0  0  0  0  0  0  0  0  0  0
   -1.5457   -6.6886   25.6077 C   0  0  1  0  0  0  0  0  0  0  0  0
   -1.7817   -8.1618   25.2527 C   0  0  2  0  0  0  0  0  0  0  0  0
   -0.9071   -9.0936   26.1211 C   0  0  2  0  0  0  0  0  0  0  0  0
    1.2640   -9.2990   26.8125 C   0  0  1  0  0  0  0  0  0  0  0  0
   -1.7277   -6.5533   27.1216 C   0  0  0  0  0  0  0  0  0  0  0  0
   -0.9100   -8.7190   27.6058 C   0  0  1  0  0  0  0  0  0  0  0  0
    0.3696   -9.3788   28.0645 C   0  0  0  0  0  0  0  0  0  0  0  0
    4.0119  -11.7052   25.4764 C   0  0  0  0  0  0  0  0  0  0  0  0
    3.9342  -12.7011   24.7089 O   0  0  0  0  0  0  0  0  0  0  0  0
    1.9983   -7.0336   26.4085 O   0  0  0  0  0  0  0  0  0  0  0  0
   -0.2502   -6.2863   25.2323 O   0  0  0  0  0  0  0  0  0  0  0  0
   -1.5227   -8.3852   23.8898 O   0  0  0  0  0  0  0  0  0  0  0  0
    3.3679   -8.3134   27.7127 O   0  0  0  0  0  0  0  0  0  0  0  0
    0.4317   -9.0822   25.6843 O   0  0  0  0  0  0  0  0  0  0  0  0
   -0.7698   -7.3204   27.8238 O   0  0  0  0  0  0  0  0  0  0  0  0
    2.0660  -10.6114   26.6193 C   0  0  0  0  0  0  0  0  0  0  0  0
    5.0536  -11.6237   26.3814 O   0  0  0  0  0  0  0  0  0  0  0  0
    2.9005  -10.4703   23.3458 H   0  0  0  0  0  0  0  0  0  0  0  0
    1.8012  -11.5477   24.0471 H   0  0  0  0  0  0  0  0  0  0  0  0
    3.6232   -9.6387   25.4141 H   0  0  0  0  0  0  0  0  0  0  0  0
   -2.3069   -6.0643   25.0846 H   0  0  0  0  0  0  0  0  0  0  0  0
   -2.8488   -8.4114   25.4658 H   0  0  0  0  0  0  0  0  0  0  0  0
   -1.2969  -10.1316   26.0099 H   0  0  0  0  0  0  0  0  0  0  0  0
   -2.7591   -6.8454   27.4244 H   0  0  0  0  0  0  0  0  0  0  0  0
   -1.5984   -5.4874   27.4046 H   0  0  0  0  0  0  0  0  0  0  0  0
   -1.7987   -9.1169   28.1449 H   0  0  0  0  0  0  0  0  0  0  0  0
    0.1471  -10.4358   28.3349 H   0  0  0  0  0  0  0  0  0  0  0  0
    0.8025   -8.8788   28.9606 H   0  0  0  0  0  0  0  0  0  0  0  0
    0.3830   -6.8651   25.7318 H   0  0  0  0  0  0  0  0  0  0  0  0
   -1.9259   -7.6260   23.3928 H   0  0  0  0  0  0  0  0  0  0  0  0
    4.0325   -7.5575   27.8267 H   0  0  0  0  0  0  0  0  0  0  0  0
    2.6404  -10.8019   27.5529 H   0  0  0  0  0  0  0  0  0  0  0  0
    1.3597  -11.4630   26.4984 H   0  0  0  0  0  0  0  0  0  0  0  0
    4.8751  -11.5216   27.3734 H   0  0  0  0  0  0  0  0  0  0  0  0
  2  1  1  0
  5  4  1  0
  6  5  1  0
  7  3  1  0
  8  4  1  0
  9  6  1  0
 10  7  1  0
  9 10  1  0
 11  2  1  0
 12 11  2  0
 13  3  2  0
  4 14  1  0
  5 15  1  0
 16  3  1  0
 17  7  1  0
  6 17  1  0
 18  9  1  0
 18  8  1  0
  7 19  1  6
 19  2  1  0
 20 11  1  0
  1 21  1  0
  1 22  1  0
  2 23  1  6
  4 24  1  6
  5 25  1  6
  6 26  1  1
  8 27  1  0
  8 28  1  0
  9 29  1  1
 10 30  1  0
 10 31  1  0
 14 32  1  0
 15 33  1  0
 16 34  1  0
 19 35  1  0
 19 36  1  0
 20 37  1  0
M  END
