
     RDKit          3D

 17 17  0  0  0  0  0  0  0  0999 V2000
   -6.9275   71.6360   13.7470 N   0  0  0  0  0  0  0  0  0  0  0  0
   -8.1006   70.9215   14.2424 C   0  0  0  0  0  0  0  0  0  0  0  0
   -7.7991   70.2428   15.5532 C   0  0  0  0  0  0  0  0  0  0  0  0
   -7.5410   71.0045   16.7052 C   0  0  0  0  0  0  0  0  0  0  0  0
   -7.2753   70.3678   17.9204 C   0  0  0  0  0  0  0  0  0  0  0  0
   -7.2598   68.9722   17.9924 C   0  0  0  0  0  0  0  0  0  0  0  0
   -7.5110   68.2088   16.8515 C   0  0  0  0  0  0  0  0  0  0  0  0
   -7.7781   68.8403   15.6345 C   0  0  0  0  0  0  0  0  0  0  0  0
   -6.8431   71.4385   12.7236 H   0  0  0  0  0  0  0  0  0  0  0  0
   -7.1074   72.6627   13.8370 H   0  0  0  0  0  0  0  0  0  0  0  0
   -8.4175   70.1695   13.4866 H   0  0  0  0  0  0  0  0  0  0  0  0
   -8.9482   71.6316   14.3721 H   0  0  0  0  0  0  0  0  0  0  0  0
   -7.5501   72.0866   16.6610 H   0  0  0  0  0  0  0  0  0  0  0  0
   -7.0796   70.9565   18.8073 H   0  0  0  0  0  0  0  0  0  0  0  0
   -7.0526   68.4823   18.9351 H   0  0  0  0  0  0  0  0  0  0  0  0
   -7.4976   67.1281   16.9094 H   0  0  0  0  0  0  0  0  0  0  0  0
   -7.9697   68.2362   14.7563 H   0  0  0  0  0  0  0  0  0  0  0  0
  2  1  1  0
  3  2  1  0
  4  3  2  0
  5  4  1  0
  6  5  2  0
  7  6  1  0
  8  3  1  0
  8  7  2  0
  1  9  1  0
  1 10  1  0
  2 11  1  0
  2 12  1  0
  4 13  1  0
  5 14  1  0
  6 15  1  0
  7 16  1  0
  8 17  1  0
M  END
