
     RDKit          3D

 16 16  0  0  0  0  0  0  0  0999 V2000
    6.8958   -6.3913   13.1783 Cl  0  0  0  0  0  0  0  0  0  0  0  0
    4.6038   -8.5030   17.6700 Cl  0  0  0  0  0  0  0  0  0  0  0  0
    7.1744   -5.3041   15.6805 C   0  0  0  0  0  0  0  0  0  0  0  0
    6.6124   -6.3286   14.9083 C   0  0  0  0  0  0  0  0  0  0  0  0
    5.8200   -7.3105   15.5097 C   0  0  0  0  0  0  0  0  0  0  0  0
    5.5947   -7.2769   16.8857 C   0  0  0  0  0  0  0  0  0  0  0  0
    6.1759   -6.2805   17.6662 C   0  0  0  0  0  0  0  0  0  0  0  0
    5.9546   -6.3348   19.0373 O   0  0  0  0  0  0  0  0  0  0  0  0
    6.9596   -5.2689   17.0717 C   0  0  0  0  0  0  0  0  0  0  0  0
    7.5024   -4.1581   17.8815 C   0  0  0  0  0  0  0  0  0  0  0  0
    8.7291   -4.1078   18.1534 O   0  0  0  0  0  0  0  0  0  0  0  0
    6.6782   -3.1360   18.3190 O   0  0  0  0  0  0  0  0  0  0  0  0
    7.7706   -4.5426   15.1930 H   0  0  0  0  0  0  0  0  0  0  0  0
    5.3805   -8.0969   14.9091 H   0  0  0  0  0  0  0  0  0  0  0  0
    5.9876   -5.5131   19.6264 H   0  0  0  0  0  0  0  0  0  0  0  0
    6.5433   -2.9612   19.3078 H   0  0  0  0  0  0  0  0  0  0  0  0
  4  1  1  0
  4  3  2  0
  5  4  1  0
  6  5  2  0
  6  2  1  0
  7  6  1  0
  8  7  1  0
  9  7  2  0
  9  3  1  0
 10  9  1  0
 11 10  2  0
 12 10  1  0
  3 13  1  0
  5 14  1  0
  8 15  1  0
 12 16  1  0
M  END
