
     RDKit          3D

 77 80  0  0  0  0  0  0  0  0999 V2000
   17.7021   19.7635    3.6064 C   0  0  0  0  0  0  0  0  0  0  0  0
   26.5029   21.3218    0.1461 C   0  0  0  0  0  0  0  0  0  0  0  0
   24.9602   17.7509   -0.3343 C   0  0  0  0  0  0  0  0  0  0  0  0
   17.3567   22.4304    0.2891 C   0  0  0  0  0  0  0  0  0  0  0  0
   17.0125   22.7750    1.5966 C   0  0  0  0  0  0  0  0  0  0  0  0
   18.3439   23.1620   -0.3814 C   0  0  0  0  0  0  0  0  0  0  0  0
   22.6073   30.1311    0.2253 C   0  0  0  0  0  0  0  0  0  0  0  0
   23.6036   29.3856   -0.3715 C   0  0  0  0  0  0  0  0  0  0  0  0
   17.6432   23.8532    2.2294 C   0  0  0  0  0  0  0  0  0  0  0  0
   18.9693   24.2534    0.2433 C   0  0  0  0  0  0  0  0  0  0  0  0
   20.1079   16.6793    6.1981 C   0  0  0  0  0  0  0  0  0  0  0  0
   20.4613   18.9632    6.9601 C   0  0  0  0  0  0  0  0  0  0  0  0
   19.6377   17.1647    4.9830 C   0  0  0  0  0  0  0  0  0  0  0  0
   20.0160   19.4519    5.7328 C   0  0  0  0  0  0  0  0  0  0  0  0
   22.2419   29.4002    1.3371 C   0  0  0  0  0  0  0  0  0  0  0  0
   21.4873   21.7404    1.1541 C   0  0  0  0  0  0  0  0  0  0  0  0
   23.0877   19.9727    0.7629 C   0  0  0  0  0  0  0  0  0  0  0  0
   23.6485   22.2750    0.2319 C   0  0  0  0  0  0  0  0  0  0  0  0
   19.3422   25.7690    2.2528 C   0  0  0  0  0  0  0  0  0  0  0  0
   23.0006   27.2587    2.4184 C   0  0  0  0  0  0  0  0  0  0  0  0
   20.7441   18.2774    1.2685 O   0  0  0  0  0  0  0  0  0  0  0  0
   22.2905   24.7993   -0.3543 O   0  0  0  0  0  0  0  0  0  0  0  0
   26.9167   19.0195   -1.6760 O   0  0  0  0  0  0  0  0  0  0  0  0
   24.6036   19.3857   -2.4425 O   0  0  0  0  0  0  0  0  0  0  0  0
   21.6363   26.2251    4.1321 O   0  0  0  0  0  0  0  0  0  0  0  0
   20.8543   19.4393    1.7500 C   0  0  0  0  0  0  0  0  0  0  0  0
   22.0516   24.0812    0.6531 C   0  0  0  0  0  0  0  0  0  0  0  0
   20.5040   17.5800    7.1860 C   0  0  0  0  0  0  0  0  0  0  0  0
   18.6197   24.6170    1.5581 C   0  0  0  0  0  0  0  0  0  0  0  0
   21.8299   20.3871    1.2137 C   0  0  0  0  0  0  0  0  0  0  0  0
   22.3950   22.6737    0.6604 C   0  0  0  0  0  0  0  0  0  0  0  0
   19.5748   18.5467    4.7438 C   0  0  0  0  0  0  0  0  0  0  0  0
   24.0077   20.9289    0.2685 C   0  0  0  0  0  0  0  0  0  0  0  0
   19.0245   19.0209    3.4284 C   0  0  2  0  0  0  0  0  0  0  0  0
   21.5757   26.8547    2.8739 C   0  0  2  0  0  0  0  0  0  0  0  0
   20.8336   25.9398    1.8586 C   0  0  1  0  0  0  0  0  0  0  0  0
   23.8130   28.2610    0.3393 N   0  0  0  0  0  0  0  0  0  0  0  0
   19.9909   19.8893    2.7899 N   0  0  0  0  0  0  0  0  0  0  0  0
   21.4604   24.6260    1.8232 N   0  0  0  0  0  0  0  0  0  0  0  0
   25.3012   20.5578   -0.2215 N   0  0  0  0  0  0  0  0  0  0  0  0
   22.9771   28.2698    1.3622 N   0  0  0  0  0  0  0  0  0  0  0  0
   25.4851   19.1839   -1.2420 S   0  0  0  0  0  0  0  0  0  0  0  0
   20.9020   17.1111    8.3865 F   0  0  0  0  0  0  0  0  0  0  0  0
   16.9715   19.1201    4.1419 H   0  0  0  0  0  0  0  0  0  0  0  0
   17.8440   20.7037    4.1812 H   0  0  0  0  0  0  0  0  0  0  0  0
   17.2811   20.0114    2.6102 H   0  0  0  0  0  0  0  0  0  0  0  0
   26.2889   22.4112    0.1093 H   0  0  0  0  0  0  0  0  0  0  0  0
   27.3319   21.1204   -0.5645 H   0  0  0  0  0  0  0  0  0  0  0  0
   26.8369   21.0362    1.1653 H   0  0  0  0  0  0  0  0  0  0  0  0
   25.5713   17.6222    0.5804 H   0  0  0  0  0  0  0  0  0  0  0  0
   23.8958   17.8691   -0.0445 H   0  0  0  0  0  0  0  0  0  0  0  0
   25.0662   16.8503   -0.9734 H   0  0  0  0  0  0  0  0  0  0  0  0
   16.8741   21.5935   -0.1987 H   0  0  0  0  0  0  0  0  0  0  0  0
   16.2613   22.2029    2.1255 H   0  0  0  0  0  0  0  0  0  0  0  0
   18.6329   22.8810   -1.3852 H   0  0  0  0  0  0  0  0  0  0  0  0
   22.2179   31.0887   -0.0931 H   0  0  0  0  0  0  0  0  0  0  0  0
   24.1464   29.6490   -1.2691 H   0  0  0  0  0  0  0  0  0  0  0  0
   17.3789   24.0787    3.2536 H   0  0  0  0  0  0  0  0  0  0  0  0
   19.7313   24.8029   -0.2951 H   0  0  0  0  0  0  0  0  0  0  0  0
   20.1432   15.6132    6.3828 H   0  0  0  0  0  0  0  0  0  0  0  0
   20.7711   19.6508    7.7366 H   0  0  0  0  0  0  0  0  0  0  0  0
   19.3122   16.4557    4.2316 H   0  0  0  0  0  0  0  0  0  0  0  0
   19.9752   20.5211    5.5704 H   0  0  0  0  0  0  0  0  0  0  0  0
   21.5070   29.6814    2.0802 H   0  0  0  0  0  0  0  0  0  0  0  0
   20.4980   22.0720    1.4476 H   0  0  0  0  0  0  0  0  0  0  0  0
   23.3371   18.9231    0.7950 H   0  0  0  0  0  0  0  0  0  0  0  0
   24.3472   23.0265   -0.1128 H   0  0  0  0  0  0  0  0  0  0  0  0
   19.2734   25.6196    3.3526 H   0  0  0  0  0  0  0  0  0  0  0  0
   18.7993   26.7108    2.0223 H   0  0  0  0  0  0  0  0  0  0  0  0
   23.5593   26.3615    2.0725 H   0  0  0  0  0  0  0  0  0  0  0  0
   23.5565   27.6748    3.2868 H   0  0  0  0  0  0  0  0  0  0  0  0
   22.3718   25.5582    4.1186 H   0  0  0  0  0  0  0  0  0  0  0  0
   18.8032   18.1536    2.7667 H   0  0  0  0  0  0  0  0  0  0  0  0
   20.9815   27.7857    3.0006 H   0  0  0  0  0  0  0  0  0  0  0  0
   20.8727   26.4255    0.8589 H   0  0  0  0  0  0  0  0  0  0  0  0
   20.1629   20.8226    3.2284 H   0  0  0  0  0  0  0  0  0  0  0  0
   21.4023   24.0284    2.6798 H   0  0  0  0  0  0  0  0  0  0  0  0
  5  4  2  0
  6  4  1  0
  8  7  1  0
  9  5  1  0
 10  6  2  0
 13 11  2  0
 14 12  1  0
 15  7  2  0
 26 21  2  0
 27 22  2  0
 28 12  2  0
 28 11  1  0
 29 19  1  0
 29 10  1  0
 29  9  2  0
 30 26  1  0
 30 16  2  0
 30 17  1  0
 31 16  1  0
 31 27  1  0
 31 18  2  0
 32 13  1  0
 32 14  2  0
 33 17  2  0
 33 18  1  0
 34 32  1  0
 34  1  1  0
 35 25  1  0
 35 20  1  0
 36 35  1  0
 36 19  1  0
 37  8  2  0
 38 34  1  0
 38 26  1  0
 39 36  1  0
 39 27  1  0
 40 33  1  0
 40  2  1  0
 41 20  1  0
 41 37  1  0
 41 15  1  0
 42 40  1  0
 42 23  2  0
 42  3  1  0
 42 24  2  0
 43 28  1  0
  1 44  1  0
  1 45  1  0
  1 46  1  0
  2 47  1  0
  2 48  1  0
  2 49  1  0
  3 50  1  0
  3 51  1  0
  3 52  1  0
  4 53  1  0
  5 54  1  0
  6 55  1  0
  7 56  1  0
  8 57  1  0
  9 58  1  0
 10 59  1  0
 11 60  1  0
 12 61  1  0
 13 62  1  0
 14 63  1  0
 15 64  1  0
 16 65  1  0
 17 66  1  0
 18 67  1  0
 19 68  1  0
 19 69  1  0
 20 70  1  0
 20 71  1  0
 25 72  1  0
 34 73  1  6
 35 74  1  1
 36 75  1  6
 38 76  1  0
 39 77  1  0
M  END
