
     RDKit          3D

 64 67  0  0  0  0  0  0  0  0999 V2000
   23.7490   18.8322   33.4412 P   0  0  2  0  0  0  0  0  0  0  0  0
   25.9044   19.2268   31.6395 P   0  0  1  0  0  0  0  0  0  0  0  0
   25.5008   17.6757   34.9187 C   0  0  0  0  0  0  0  0  0  0  0  0
   24.5517   17.4414   33.9114 O   0  0  0  0  0  0  0  0  0  0  0  0
   25.8607   16.3023   35.4961 C   0  0  1  0  0  0  0  0  0  0  0  0
   24.8441   15.8985   36.4031 O   0  0  0  0  0  0  0  0  0  0  0  0
   25.9621   15.2337   34.3801 C   0  0  1  0  0  0  0  0  0  0  0  0
   27.0197   14.3560   34.6609 O   0  0  0  0  0  0  0  0  0  0  0  0
   24.6354   14.5130   34.5198 C   0  0  1  0  0  0  0  0  0  0  0  0
   24.6795   13.1922   34.0486 O   0  0  0  0  0  0  0  0  0  0  0  0
   24.4655   14.5924   36.0286 C   0  0  2  0  0  0  0  0  0  0  0  0
   19.3979   15.6394   35.6916 N   0  0  0  0  0  0  0  0  0  0  0  0
   23.2255   19.5951   34.6355 O   0  0  0  0  0  0  0  0  0  0  0  0
   26.1637   20.4671   30.5198 O   0  0  0  0  0  0  0  0  0  0  0  0
   20.4315   16.2112   34.9979 C   0  0  0  0  0  0  0  0  0  0  0  0
   20.1591   17.2445   34.0646 N   0  0  0  0  0  0  0  0  0  0  0  0
   22.4891   18.3783   32.4283 O   0  0  0  0  0  0  0  0  0  0  0  0
   27.2039   18.9843   32.3778 O   0  0  0  0  0  0  0  0  0  0  0  0
   21.7202   15.8150   35.2220 N   0  0  0  0  0  0  0  0  0  0  0  0
   24.7248   19.9066   32.6381 O   0  0  0  0  0  0  0  0  0  0  0  0
   25.3978   17.8502   30.8091 O   0  0  0  0  0  0  0  0  0  0  0  0
   21.9384   14.8355   36.1333 C   0  0  0  0  0  0  0  0  0  0  0  0
   20.9360   14.2617   36.8395 C   0  0  0  0  0  0  0  0  0  0  0  0
   19.6227   14.6703   36.6246 C   0  0  0  0  0  0  0  0  0  0  0  0
   18.6606   14.1697   37.2630 O   0  0  0  0  0  0  0  0  0  0  0  0
   30.5935   21.4048   29.7472 O   0  0  0  0  0  0  0  0  0  0  0  0
   21.4272   13.3325   37.6852 N   0  0  0  0  0  0  0  0  0  0  0  0
   22.7666   13.3797   37.4447 C   0  0  0  0  0  0  0  0  0  0  0  0
   23.1078   14.2854   36.4890 N   0  0  0  0  0  0  0  0  0  0  0  0
   26.3952   21.7102   31.1832 C   0  0  2  0  0  0  0  0  0  0  0  0
   25.5648   22.8006   30.4955 C   0  0  1  0  0  0  0  0  0  0  0  0
   25.6044   23.9724   31.2755 O   0  0  0  0  0  0  0  0  0  0  0  0
   26.1382   23.0579   29.0964 C   0  0  1  0  0  0  0  0  0  0  0  0
   25.4296   24.0807   28.4442 O   0  0  0  0  0  0  0  0  0  0  0  0
   27.6403   23.3752   29.2124 C   0  0  2  0  0  0  0  0  0  0  0  0
   28.2105   23.5345   27.9380 O   0  0  0  0  0  0  0  0  0  0  0  0
   28.3354   22.2118   29.9404 C   0  0  2  0  0  0  0  0  0  0  0  0
   27.7792   22.0105   31.2279 O   0  0  0  0  0  0  0  0  0  0  0  0
   29.8296   22.5204   30.1112 C   0  0  0  0  0  0  0  0  0  0  0  0
   26.4113   18.1425   34.4998 H   0  0  0  0  0  0  0  0  0  0  0  0
   25.1051   18.3167   35.7385 H   0  0  0  0  0  0  0  0  0  0  0  0
   26.8213   16.3921   36.0505 H   0  0  0  0  0  0  0  0  0  0  0  0
   26.0855   15.6476   33.3525 H   0  0  0  0  0  0  0  0  0  0  0  0
   27.8534   14.8255   34.3961 H   0  0  0  0  0  0  0  0  0  0  0  0
   23.8295   15.0713   33.9963 H   0  0  0  0  0  0  0  0  0  0  0  0
   25.0380   12.6420   34.7930 H   0  0  0  0  0  0  0  0  0  0  0  0
   25.1698   13.8736   36.5123 H   0  0  0  0  0  0  0  0  0  0  0  0
   18.4188   15.9606   35.5152 H   0  0  0  0  0  0  0  0  0  0  0  0
   19.1839   17.4056   33.7282 H   0  0  0  0  0  0  0  0  0  0  0  0
   20.8359   18.0262   33.9726 H   0  0  0  0  0  0  0  0  0  0  0  0
   22.1428   19.2291   32.0576 H   0  0  0  0  0  0  0  0  0  0  0  0
   26.2246   17.4551   30.4354 H   0  0  0  0  0  0  0  0  0  0  0  0
   30.6188   21.3851   28.7546 H   0  0  0  0  0  0  0  0  0  0  0  0
   23.4825   12.7560   37.9645 H   0  0  0  0  0  0  0  0  0  0  0  0
   26.0850   21.7787   32.2376 H   0  0  0  0  0  0  0  0  0  0  0  0
   24.5133   22.4367   30.4022 H   0  0  0  0  0  0  0  0  0  0  0  0
   25.4639   24.7374   30.6586 H   0  0  0  0  0  0  0  0  0  0  0  0
   26.0161   22.1353   28.4858 H   0  0  0  0  0  0  0  0  0  0  0  0
   25.6575   24.9419   28.8822 H   0  0  0  0  0  0  0  0  0  0  0  0
   27.7873   24.3068   29.8105 H   0  0  0  0  0  0  0  0  0  0  0  0
   28.9701   22.8979   27.8813 H   0  0  0  0  0  0  0  0  0  0  0  0
   28.2393   21.2859   29.3264 H   0  0  0  0  0  0  0  0  0  0  0  0
   30.0432   22.7738   31.1720 H   0  0  0  0  0  0  0  0  0  0  0  0
   30.1450   23.3943   29.4968 H   0  0  0  0  0  0  0  0  0  0  0  0
  4  3  1  0
  1  4  1  1
  5  3  1  0
  6  5  1  0
  7  5  1  0
  7  8  1  0
  9  7  1  0
  9 10  1  0
 11  9  1  0
 11  6  1  0
 13  1  2  0
  2 14  1  6
 15 12  1  0
 16 15  1  0
 17  1  1  0
 18  2  2  0
 19 15  2  0
 20  2  1  0
 20  1  1  0
 21  2  1  0
 22 19  1  0
 23 22  2  0
 24 23  1  0
 24 12  1  0
 25 24  2  0
 27 23  1  0
 28 27  2  0
 29 22  1  0
 29 28  1  0
 11 29  1  0
 30 14  1  0
 31 30  1  0
 31 32  1  0
 33 31  1  0
 33 34  1  0
 35 33  1  0
 35 36  1  0
 37 35  1  0
 38 30  1  0
 38 37  1  0
 37 39  1  0
 39 26  1  0
  3 40  1  0
  3 41  1  0
  5 42  1  1
  7 43  1  6
  8 44  1  0
  9 45  1  6
 10 46  1  0
 11 47  1  1
 12 48  1  0
 16 49  1  0
 16 50  1  0
 17 51  1  0
 21 52  1  0
 26 53  1  0
 28 54  1  0
 30 55  1  1
 31 56  1  6
 32 57  1  0
 33 58  1  6
 34 59  1  0
 35 60  1  1
 36 61  1  0
 37 62  1  6
 39 63  1  0
 39 64  1  0
M  END
