
     RDKit          3D

 64 67  0  0  0  0  0  0  0  0999 V2000
   44.6289   18.7913   -3.6620 P   0  0  2  0  0  0  0  0  0  0  0  0
   43.8180   18.4183   -0.9582 P   0  0  1  0  0  0  0  0  0  0  0  0
   47.0002   18.8988   -2.7160 C   0  0  0  0  0  0  0  0  0  0  0  0
   45.8995   19.6971   -3.0607 O   0  0  0  0  0  0  0  0  0  0  0  0
   48.1759   19.8545   -2.4844 C   0  0  1  0  0  0  0  0  0  0  0  0
   48.4288   20.5629   -3.6871 O   0  0  0  0  0  0  0  0  0  0  0  0
   47.8570   20.8887   -1.3706 C   0  0  1  0  0  0  0  0  0  0  0  0
   48.9642   21.1088   -0.5243 O   0  0  0  0  0  0  0  0  0  0  0  0
   47.5098   22.1223   -2.1798 C   0  0  1  0  0  0  0  0  0  0  0  0
   47.7239   23.3075   -1.4600 O   0  0  0  0  0  0  0  0  0  0  0  0
   48.4666   21.9302   -3.3501 C   0  0  2  0  0  0  0  0  0  0  0  0
   45.0003   23.2650   -6.9631 N   0  0  0  0  0  0  0  0  0  0  0  0
   45.0552   17.8674   -4.7784 O   0  0  0  0  0  0  0  0  0  0  0  0
   42.4512   17.6092   -0.3742 O   0  0  0  0  0  0  0  0  0  0  0  0
   44.8242   22.4129   -5.9028 C   0  0  0  0  0  0  0  0  0  0  0  0
   43.5575   21.8076   -5.7066 N   0  0  0  0  0  0  0  0  0  0  0  0
   43.4547   19.8549   -4.2097 O   0  0  0  0  0  0  0  0  0  0  0  0
   45.0032   18.0681   -0.0813 O   0  0  0  0  0  0  0  0  0  0  0  0
   45.8449   22.1737   -5.0207 N   0  0  0  0  0  0  0  0  0  0  0  0
   44.0047   17.7748   -2.5104 O   0  0  0  0  0  0  0  0  0  0  0  0
   43.4870   20.0652   -0.8806 O   0  0  0  0  0  0  0  0  0  0  0  0
   47.0224   22.8115   -5.2356 C   0  0  0  0  0  0  0  0  0  0  0  0
   47.2129   23.6581   -6.2719 C   0  0  0  0  0  0  0  0  0  0  0  0
   46.1849   23.9066   -7.1615 C   0  0  0  0  0  0  0  0  0  0  0  0
   46.3327   24.7018   -8.1257 O   0  0  0  0  0  0  0  0  0  0  0  0
   44.4528   15.0119    2.7011 O   0  0  0  0  0  0  0  0  0  0  0  0
   48.4642   24.1509   -6.2642 N   0  0  0  0  0  0  0  0  0  0  0  0
   49.0130   23.5623   -5.1717 C   0  0  0  0  0  0  0  0  0  0  0  0
   48.1483   22.7474   -4.5142 N   0  0  0  0  0  0  0  0  0  0  0  0
   42.3927   16.2711   -0.8614 C   0  0  2  0  0  0  0  0  0  0  0  0
   40.9184   15.8791   -1.0485 C   0  0  1  0  0  0  0  0  0  0  0  0
   40.8398   14.6617   -1.7531 O   0  0  0  0  0  0  0  0  0  0  0  0
   40.2450   15.7559    0.3241 C   0  0  1  0  0  0  0  0  0  0  0  0
   38.9242   15.2911    0.1924 O   0  0  0  0  0  0  0  0  0  0  0  0
   41.0732   14.8287    1.2256 C   0  0  2  0  0  0  0  0  0  0  0  0
   40.5267   14.7973    2.5192 O   0  0  0  0  0  0  0  0  0  0  0  0
   42.5194   15.3353    1.2997 C   0  0  2  0  0  0  0  0  0  0  0  0
   43.0978   15.3985    0.0056 O   0  0  0  0  0  0  0  0  0  0  0  0
   43.3439   14.3573    2.1553 C   0  0  0  0  0  0  0  0  0  0  0  0
   46.7974   18.3394   -1.7815 H   0  0  0  0  0  0  0  0  0  0  0  0
   47.2723   18.1804   -3.5224 H   0  0  0  0  0  0  0  0  0  0  0  0
   49.0732   19.2507   -2.2239 H   0  0  0  0  0  0  0  0  0  0  0  0
   47.0034   20.5908   -0.7248 H   0  0  0  0  0  0  0  0  0  0  0  0
   49.7913   21.1682   -1.0678 H   0  0  0  0  0  0  0  0  0  0  0  0
   46.4486   22.0730   -2.5080 H   0  0  0  0  0  0  0  0  0  0  0  0
   47.4920   23.1054   -0.5164 H   0  0  0  0  0  0  0  0  0  0  0  0
   49.5027   22.1847   -3.0273 H   0  0  0  0  0  0  0  0  0  0  0  0
   44.2081   23.4415   -7.6221 H   0  0  0  0  0  0  0  0  0  0  0  0
   42.7011   22.3420   -5.9420 H   0  0  0  0  0  0  0  0  0  0  0  0
   43.4756   20.7711   -5.6106 H   0  0  0  0  0  0  0  0  0  0  0  0
   43.3480   19.6408   -5.1708 H   0  0  0  0  0  0  0  0  0  0  0  0
   44.0624   20.4771   -1.5723 H   0  0  0  0  0  0  0  0  0  0  0  0
   44.1208   15.5481    3.4683 H   0  0  0  0  0  0  0  0  0  0  0  0
   50.0379   23.7269   -4.8643 H   0  0  0  0  0  0  0  0  0  0  0  0
   42.8337   16.0790   -1.8507 H   0  0  0  0  0  0  0  0  0  0  0  0
   40.4139   16.6884   -1.6296 H   0  0  0  0  0  0  0  0  0  0  0  0
   39.9959   14.6803   -2.2759 H   0  0  0  0  0  0  0  0  0  0  0  0
   40.2009   16.7646    0.7923 H   0  0  0  0  0  0  0  0  0  0  0  0
   38.4354   15.9018   -0.4189 H   0  0  0  0  0  0  0  0  0  0  0  0
   41.0847   13.7982    0.7942 H   0  0  0  0  0  0  0  0  0  0  0  0
   39.9652   15.6104    2.6153 H   0  0  0  0  0  0  0  0  0  0  0  0
   42.5350   16.3381    1.7870 H   0  0  0  0  0  0  0  0  0  0  0  0
   43.6989   13.5132    1.5255 H   0  0  0  0  0  0  0  0  0  0  0  0
   42.7492   13.9071    2.9826 H   0  0  0  0  0  0  0  0  0  0  0  0
  4  3  1  0
  1  4  1  1
  5  3  1  0
  6  5  1  0
  7  5  1  0
  7  8  1  0
  9  7  1  0
  9 10  1  0
 11  9  1  0
 11  6  1  0
 13  1  2  0
  2 14  1  1
 15 12  1  0
 16 15  1  0
 17  1  1  0
 18  2  2  0
 19 15  2  0
 20  2  1  0
 20  1  1  0
 21  2  1  0
 22 19  1  0
 23 22  2  0
 24 23  1  0
 24 12  1  0
 25 24  2  0
 27 23  1  0
 28 27  2  0
 29 28  1  0
 29 22  1  0
 11 29  1  0
 30 14  1  0
 31 30  1  0
 31 32  1  0
 33 31  1  0
 33 34  1  0
 35 33  1  0
 35 36  1  0
 37 35  1  0
 38 37  1  0
 38 30  1  0
 37 39  1  0
 39 26  1  0
  3 40  1  0
  3 41  1  0
  5 42  1  1
  7 43  1  1
  8 44  1  0
  9 45  1  6
 10 46  1  0
 11 47  1  1
 12 48  1  0
 16 49  1  0
 16 50  1  0
 17 51  1  0
 21 52  1  0
 26 53  1  0
 28 54  1  0
 30 55  1  6
 31 56  1  6
 32 57  1  0
 33 58  1  1
 34 59  1  0
 35 60  1  6
 36 61  1  0
 37 62  1  1
 39 63  1  0
 39 64  1  0
M  END
