
     RDKit          3D

 32 33  0  0  0  0  0  0  0  0999 V2000
   15.8785    4.0669   47.8257 N   0  0  0  0  0  0  0  0  0  0  0  0
   15.9454    3.6336   49.1088 C   0  0  0  0  0  0  0  0  0  0  0  0
   14.8422    2.9389   49.6738 N   0  0  0  0  0  0  0  0  0  0  0  0
   17.0656    3.8634   49.8517 N   0  0  0  0  0  0  0  0  0  0  0  0
   18.1346    4.5275   49.3308 C   0  0  0  0  0  0  0  0  0  0  0  0
   18.0767    4.9829   48.0100 C   0  0  0  0  0  0  0  0  0  0  0  0
   19.1554    4.7343   50.0440 O   0  0  0  0  0  0  0  0  0  0  0  0
   19.1481    5.7223   47.4148 N   0  0  0  0  0  0  0  0  0  0  0  0
   18.8508    6.5825   46.2660 C   0  0  2  0  0  0  0  0  0  0  0  0
   17.9612    5.8224   45.2524 C   0  0  0  0  0  0  0  0  0  0  0  0
   16.9171    4.7317   47.2652 C   0  0  0  0  0  0  0  0  0  0  0  0
   16.8229    5.1902   45.9191 N   0  0  0  0  0  0  0  0  0  0  0  0
   20.1635    7.1424   45.6580 C   0  0  1  0  0  0  0  0  0  0  0  0
   20.4804    6.4818   44.4541 O   0  0  0  0  0  0  0  0  0  0  0  0
   20.0898    8.6629   45.4223 C   0  0  1  0  0  0  0  0  0  0  0  0
   19.4703    8.9034   44.1836 O   0  0  0  0  0  0  0  0  0  0  0  0
   19.2934    9.3478   46.5342 C   0  0  0  0  0  0  0  0  0  0  0  0
   14.1153    2.5036   49.0636 H   0  0  0  0  0  0  0  0  0  0  0  0
   14.7463    2.8560   50.7103 H   0  0  0  0  0  0  0  0  0  0  0  0
   17.1064    3.5256   50.8402 H   0  0  0  0  0  0  0  0  0  0  0  0
   20.0894    5.7451   47.8695 H   0  0  0  0  0  0  0  0  0  0  0  0
   18.2525    7.4403   46.6470 H   0  0  0  0  0  0  0  0  0  0  0  0
   17.5736    6.5216   44.4819 H   0  0  0  0  0  0  0  0  0  0  0  0
   18.5592    5.0354   44.7448 H   0  0  0  0  0  0  0  0  0  0  0  0
   15.9616    4.9833   45.3649 H   0  0  0  0  0  0  0  0  0  0  0  0
   20.9624    6.9507   46.4163 H   0  0  0  0  0  0  0  0  0  0  0  0
   20.0544    6.9896   43.7150 H   0  0  0  0  0  0  0  0  0  0  0  0
   21.1213    9.0858   45.4266 H   0  0  0  0  0  0  0  0  0  0  0  0
   19.7185    9.8259   43.9128 H   0  0  0  0  0  0  0  0  0  0  0  0
   19.9464   10.0292   47.1205 H   0  0  0  0  0  0  0  0  0  0  0  0
   18.8741    8.5827   47.2215 H   0  0  0  0  0  0  0  0  0  0  0  0
   18.4466    9.9271   46.1096 H   0  0  0  0  0  0  0  0  0  0  0  0
  2  1  2  0
  3  2  1  0
  4  2  1  0
  5  4  1  0
  6  5  1  0
  7  5  2  0
  8  6  1  0
  9  8  1  0
  9 10  1  0
 11  1  1  0
 11  6  2  0
 12 11  1  0
 12 10  1  0
 13  9  1  0
 13 14  1  0
 15 13  1  0
 16 15  1  0
 15 17  1  0
  3 18  1  0
  3 19  1  0
  4 20  1  0
  8 21  1  0
  9 22  1  1
 10 23  1  0
 10 24  1  0
 12 25  1  0
 13 26  1  1
 14 27  1  0
 15 28  1  6
 16 29  1  0
 17 30  1  0
 17 31  1  0
 17 32  1  0
M  END
