
     RDKit          3D

 32 33  0  0  0  0  0  0  0  0999 V2000
   11.5212    2.4253   32.6515 N   0  0  0  0  0  0  0  0  0  0  0  0
   11.6629    2.0675   31.3487 C   0  0  0  0  0  0  0  0  0  0  0  0
   12.9644    1.9531   30.7851 N   0  0  0  0  0  0  0  0  0  0  0  0
   10.5612    1.8216   30.5840 N   0  0  0  0  0  0  0  0  0  0  0  0
    9.3052    1.9316   31.0989 C   0  0  0  0  0  0  0  0  0  0  0  0
    9.1455    2.3100   32.4364 C   0  0  0  0  0  0  0  0  0  0  0  0
    8.3030    1.7052   30.3652 O   0  0  0  0  0  0  0  0  0  0  0  0
    7.8519    2.5005   33.0183 N   0  0  0  0  0  0  0  0  0  0  0  0
    7.7319    3.3622   34.1975 C   0  0  2  0  0  0  0  0  0  0  0  0
    8.8405    3.0072   35.2194 C   0  0  0  0  0  0  0  0  0  0  0  0
   10.2895    2.5483   33.2079 C   0  0  0  0  0  0  0  0  0  0  0  0
   10.1544    2.9437   34.5734 N   0  0  0  0  0  0  0  0  0  0  0  0
    6.2942    3.2746   34.7723 C   0  0  1  0  0  0  0  0  0  0  0  0
    6.0720    2.0236   35.3765 O   0  0  0  0  0  0  0  0  0  0  0  0
    5.9970    4.3942   35.7838 C   0  0  1  0  0  0  0  0  0  0  0  0
    6.7474    5.5305   35.4383 O   0  0  0  0  0  0  0  0  0  0  0  0
    4.5080    4.7468   35.7782 C   0  0  0  0  0  0  0  0  0  0  0  0
   13.8016    2.3116   31.2957 H   0  0  0  0  0  0  0  0  0  0  0  0
   13.0963    1.5071   29.8502 H   0  0  0  0  0  0  0  0  0  0  0  0
   10.6803    1.5454   29.5827 H   0  0  0  0  0  0  0  0  0  0  0  0
    6.9989    2.1803   32.5057 H   0  0  0  0  0  0  0  0  0  0  0  0
    7.9123    4.4074   33.8610 H   0  0  0  0  0  0  0  0  0  0  0  0
    8.6240    2.0210   35.6829 H   0  0  0  0  0  0  0  0  0  0  0  0
    8.8779    3.7727   36.0228 H   0  0  0  0  0  0  0  0  0  0  0  0
   11.0115    3.1028   35.1494 H   0  0  0  0  0  0  0  0  0  0  0  0
    5.5884    3.4099   33.9161 H   0  0  0  0  0  0  0  0  0  0  0  0
    6.7042    1.9439   36.1373 H   0  0  0  0  0  0  0  0  0  0  0  0
    6.2679    4.0482   36.8082 H   0  0  0  0  0  0  0  0  0  0  0  0
    7.6186    5.4529   35.9080 H   0  0  0  0  0  0  0  0  0  0  0  0
    4.3115    5.5586   36.5103 H   0  0  0  0  0  0  0  0  0  0  0  0
    3.8966    3.8659   36.0675 H   0  0  0  0  0  0  0  0  0  0  0  0
    4.1924    5.0949   34.7713 H   0  0  0  0  0  0  0  0  0  0  0  0
  2  1  2  0
  3  2  1  0
  4  2  1  0
  5  4  1  0
  6  5  1  0
  7  5  2  0
  8  6  1  0
  9  8  1  0
  9 10  1  0
 11  6  2  0
 11  1  1  0
 12 11  1  0
 12 10  1  0
 13  9  1  0
 13 14  1  0
 15 13  1  0
 16 15  1  0
 15 17  1  0
  3 18  1  0
  3 19  1  0
  4 20  1  0
  8 21  1  0
  9 22  1  6
 10 23  1  0
 10 24  1  0
 12 25  1  0
 13 26  1  6
 14 27  1  0
 15 28  1  1
 16 29  1  0
 17 30  1  0
 17 31  1  0
 17 32  1  0
M  END
