
     RDKit          3D

 32 33  0  0  0  0  0  0  0  0999 V2000
   10.3478    3.2601   33.7419 N   0  0  0  0  0  0  0  0  0  0  0  0
   10.4895    2.9024   32.4390 C   0  0  0  0  0  0  0  0  0  0  0  0
   11.7909    2.7879   31.8754 N   0  0  0  0  0  0  0  0  0  0  0  0
    9.3877    2.6565   31.6743 N   0  0  0  0  0  0  0  0  0  0  0  0
    8.1318    2.7665   32.1892 C   0  0  0  0  0  0  0  0  0  0  0  0
    7.9721    3.1448   33.5268 C   0  0  0  0  0  0  0  0  0  0  0  0
    7.1296    2.5400   31.4556 O   0  0  0  0  0  0  0  0  0  0  0  0
    6.6784    3.3354   34.1087 N   0  0  0  0  0  0  0  0  0  0  0  0
    6.5585    4.1970   35.2879 C   0  0  2  0  0  0  0  0  0  0  0  0
    7.6671    3.8421   36.3098 C   0  0  0  0  0  0  0  0  0  0  0  0
    9.1161    3.3831   34.2982 C   0  0  0  0  0  0  0  0  0  0  0  0
    8.9810    3.7785   35.6638 N   0  0  0  0  0  0  0  0  0  0  0  0
    5.1207    4.1095   35.8626 C   0  0  1  0  0  0  0  0  0  0  0  0
    4.6524    2.7829   35.8396 O   0  0  0  0  0  0  0  0  0  0  0  0
    5.0259    4.6636   37.2941 C   0  0  1  0  0  0  0  0  0  0  0  0
    3.6713    4.7915   37.6436 O   0  0  0  0  0  0  0  0  0  0  0  0
    5.7203    3.7257   38.2840 C   0  0  0  0  0  0  0  0  0  0  0  0
   11.9186    2.5150   30.8757 H   0  0  0  0  0  0  0  0  0  0  0  0
   12.6361    2.9766   32.4588 H   0  0  0  0  0  0  0  0  0  0  0  0
    9.5069    2.3803   30.6731 H   0  0  0  0  0  0  0  0  0  0  0  0
    5.8255    3.0151   33.5961 H   0  0  0  0  0  0  0  0  0  0  0  0
    6.7388    5.2422   34.9513 H   0  0  0  0  0  0  0  0  0  0  0  0
    7.4506    2.8559   36.7732 H   0  0  0  0  0  0  0  0  0  0  0  0
    7.7045    4.6076   37.1131 H   0  0  0  0  0  0  0  0  0  0  0  0
    9.8380    3.9377   36.2397 H   0  0  0  0  0  0  0  0  0  0  0  0
    4.4691    4.7500   35.2188 H   0  0  0  0  0  0  0  0  0  0  0  0
    4.3732    2.5819   34.9087 H   0  0  0  0  0  0  0  0  0  0  0  0
    5.5331    5.6550   37.3410 H   0  0  0  0  0  0  0  0  0  0  0  0
    3.6462    5.1043   38.5856 H   0  0  0  0  0  0  0  0  0  0  0  0
    6.6889    4.1661   38.6023 H   0  0  0  0  0  0  0  0  0  0  0  0
    5.9272    2.7422   37.8113 H   0  0  0  0  0  0  0  0  0  0  0  0
    5.0889    3.5716   39.1852 H   0  0  0  0  0  0  0  0  0  0  0  0
  2  1  2  0
  3  2  1  0
  4  2  1  0
  5  4  1  0
  6  5  1  0
  7  5  2  0
  8  6  1  0
  9  8  1  0
  9 10  1  0
 11  6  2  0
 11  1  1  0
 12 11  1  0
 12 10  1  0
 13  9  1  0
 13 14  1  0
 15 13  1  0
 16 15  1  0
 15 17  1  0
  3 18  1  0
  3 19  1  0
  4 20  1  0
  8 21  1  0
  9 22  1  6
 10 23  1  0
 10 24  1  0
 12 25  1  0
 13 26  1  6
 14 27  1  0
 15 28  1  6
 16 29  1  0
 17 30  1  0
 17 31  1  0
 17 32  1  0
M  END
