
     RDKit          3D

 37 39  0  0  0  0  0  0  0  0999 V2000
   -4.3661   30.1772   26.0094 C   0  0  0  0  0  0  0  0  0  0  0  0
   -8.1691   31.2739   25.2006 C   0  0  0  0  0  0  0  0  0  0  0  0
   -3.2894   32.0359   24.1340 C   0  0  0  0  0  0  0  0  0  0  0  0
   -7.3366   33.4633   24.3006 C   0  0  0  0  0  0  0  0  0  0  0  0
   -4.0529   34.8402   23.2102 C   0  0  0  0  0  0  0  0  0  0  0  0
   -7.0567   32.1571   24.7084 C   0  0  0  0  0  0  0  0  0  0  0  0
   -4.7129   32.5398   24.1684 C   0  0  0  0  0  0  0  0  0  0  0  0
   -5.0552   33.8558   23.7574 C   0  0  0  0  0  0  0  0  0  0  0  0
   -5.7318   31.7013   24.6589 C   0  0  0  0  0  0  0  0  0  0  0  0
   -6.3465   34.2673   23.8439 N   0  0  0  0  0  0  0  0  0  0  0  0
   -5.4248   30.4114   25.0912 O   0  0  0  0  0  0  0  0  0  0  0  0
   -0.7943   37.7844   27.8361 Cl  0  0  0  0  0  0  0  0  0  0  0  0
   -0.0134   35.7371   26.2862 N   0  0  0  0  0  0  0  0  0  0  0  0
   -0.1438   34.7966   25.3053 C   0  0  0  0  0  0  0  0  0  0  0  0
    0.9251   33.9063   25.0491 N   0  0  0  0  0  0  0  0  0  0  0  0
   -1.2944   34.7057   24.5733 N   0  0  0  0  0  0  0  0  0  0  0  0
   -2.2938   35.5780   24.8525 C   0  0  0  0  0  0  0  0  0  0  0  0
   -2.1871   36.5203   25.8160 C   0  0  0  0  0  0  0  0  0  0  0  0
   -1.0174   36.6098   26.5651 C   0  0  0  0  0  0  0  0  0  0  0  0
   -3.3137   37.2603   25.8753 N   0  0  0  0  0  0  0  0  0  0  0  0
   -4.1008   36.7021   24.9156 C   0  0  0  0  0  0  0  0  0  0  0  0
   -3.5010   35.6643   24.2792 N   0  0  0  0  0  0  0  0  0  0  0  0
   -4.2919   29.0884   26.2073 H   0  0  0  0  0  0  0  0  0  0  0  0
   -3.4059   30.5280   25.5752 H   0  0  0  0  0  0  0  0  0  0  0  0
   -4.5496   30.7011   26.9686 H   0  0  0  0  0  0  0  0  0  0  0  0
   -9.1506   31.6471   24.8380 H   0  0  0  0  0  0  0  0  0  0  0  0
   -8.0534   30.2341   24.8289 H   0  0  0  0  0  0  0  0  0  0  0  0
   -8.1808   31.2734   26.3103 H   0  0  0  0  0  0  0  0  0  0  0  0
   -2.7742   32.3827   23.2158 H   0  0  0  0  0  0  0  0  0  0  0  0
   -2.7440   32.4127   25.0240 H   0  0  0  0  0  0  0  0  0  0  0  0
   -3.2298   30.9283   24.1287 H   0  0  0  0  0  0  0  0  0  0  0  0
   -8.3482   33.8462   24.3433 H   0  0  0  0  0  0  0  0  0  0  0  0
   -4.5438   35.5049   22.4664 H   0  0  0  0  0  0  0  0  0  0  0  0
   -3.2459   34.3054   22.6672 H   0  0  0  0  0  0  0  0  0  0  0  0
    1.2787   33.2632   25.7919 H   0  0  0  0  0  0  0  0  0  0  0  0
    1.2790   33.2631   25.7917 H   0  0  0  0  0  0  0  0  0  0  0  0
   -5.0999   37.0510   24.6883 H   0  0  0  0  0  0  0  0  0  0  0  0
  6  2  1  0
  6  4  2  0
  7  3  1  0
  8  7  1  0
  8  5  1  0
  9  6  1  0
  9  7  2  0
 10  4  1  0
 10  8  2  0
 11  9  1  0
 11  1  1  0
 14 13  2  0
 15 14  1  0
 16 14  1  0
 17 16  2  0
 18 17  1  0
 19 18  2  0
 19 13  1  0
 19 12  1  0
 20 18  1  0
 21 20  2  0
 22 21  1  0
 22 17  1  0
 22  5  1  0
  1 23  1  0
  1 24  1  0
  1 25  1  0
  2 26  1  0
  2 27  1  0
  2 28  1  0
  3 29  1  0
  3 30  1  0
  3 31  1  0
  4 32  1  0
  5 33  1  0
  5 34  1  0
 15 35  1  0
 15 36  1  0
 21 37  1  0
M  END
