
     RDKit          3D

 37 39  0  0  0  0  0  0  0  0999 V2000
   -4.1748   29.7326   25.9611 C   0  0  0  0  0  0  0  0  0  0  0  0
   -8.0349   30.9109   25.7845 C   0  0  0  0  0  0  0  0  0  0  0  0
   -3.4611   31.2692   23.6674 C   0  0  0  0  0  0  0  0  0  0  0  0
   -7.3517   32.9161   24.4394 C   0  0  0  0  0  0  0  0  0  0  0  0
   -4.3293   33.9635   22.5327 C   0  0  0  0  0  0  0  0  0  0  0  0
   -7.0261   31.6621   24.9612 C   0  0  0  0  0  0  0  0  0  0  0  0
   -4.8345   31.8471   23.9152 C   0  0  0  0  0  0  0  0  0  0  0  0
   -5.2216   33.1136   23.4014 C   0  0  0  0  0  0  0  0  0  0  0  0
   -5.7511   31.1350   24.7118 C   0  0  0  0  0  0  0  0  0  0  0  0
   -6.4571   33.5999   23.6862 N   0  0  0  0  0  0  0  0  0  0  0  0
   -5.3935   29.8990   25.2497 O   0  0  0  0  0  0  0  0  0  0  0  0
   -0.2372   37.2010   26.2013 Cl  0  0  0  0  0  0  0  0  0  0  0  0
   -0.0043   34.7062   25.2395 N   0  0  0  0  0  0  0  0  0  0  0  0
   -0.3917   33.5988   24.5413 C   0  0  0  0  0  0  0  0  0  0  0  0
    0.4476   32.4604   24.5217 N   0  0  0  0  0  0  0  0  0  0  0  0
   -1.5798   33.5791   23.8661 N   0  0  0  0  0  0  0  0  0  0  0  0
   -2.3536   34.6911   23.9123 C   0  0  0  0  0  0  0  0  0  0  0  0
   -1.9902   35.8009   24.5935 C   0  0  0  0  0  0  0  0  0  0  0  0
   -0.7825   35.8196   25.2854 C   0  0  0  0  0  0  0  0  0  0  0  0
   -2.9298   36.7602   24.4630 N   0  0  0  0  0  0  0  0  0  0  0  0
   -3.8762   36.1625   23.6888 C   0  0  0  0  0  0  0  0  0  0  0  0
   -3.5497   34.8911   23.3440 N   0  0  0  0  0  0  0  0  0  0  0  0
   -4.0831   28.6746   26.2807 H   0  0  0  0  0  0  0  0  0  0  0  0
   -3.3165   29.9828   25.3021 H   0  0  0  0  0  0  0  0  0  0  0  0
   -4.1491   30.3794   26.8606 H   0  0  0  0  0  0  0  0  0  0  0  0
   -9.0663   31.1520   25.4495 H   0  0  0  0  0  0  0  0  0  0  0  0
   -7.9024   29.8133   25.6821 H   0  0  0  0  0  0  0  0  0  0  0  0
   -7.9346   31.2001   26.8512 H   0  0  0  0  0  0  0  0  0  0  0  0
   -3.0176   31.6970   22.7460 H   0  0  0  0  0  0  0  0  0  0  0  0
   -2.8036   31.4997   24.5311 H   0  0  0  0  0  0  0  0  0  0  0  0
   -3.4813   30.1693   23.5252 H   0  0  0  0  0  0  0  0  0  0  0  0
   -8.3234   33.3538   24.6298 H   0  0  0  0  0  0  0  0  0  0  0  0
   -4.9462   34.5492   21.8169 H   0  0  0  0  0  0  0  0  0  0  0  0
   -3.6643   33.3203   21.9194 H   0  0  0  0  0  0  0  0  0  0  0  0
    1.2358   32.3854   23.8409 H   0  0  0  0  0  0  0  0  0  0  0  0
    1.2359   32.3851   23.8410 H   0  0  0  0  0  0  0  0  0  0  0  0
   -4.7920   36.6524   23.3839 H   0  0  0  0  0  0  0  0  0  0  0  0
  6  2  1  0
  6  4  2  0
  7  3  1  0
  8  7  1  0
  8  5  1  0
  9  6  1  0
  9  7  2  0
 10  4  1  0
 10  8  2  0
 11  9  1  0
 11  1  1  0
 14 13  2  0
 15 14  1  0
 16 14  1  0
 17 16  2  0
 18 17  1  0
 19 18  2  0
 19 13  1  0
 19 12  1  0
 20 18  1  0
 21 20  2  0
 22 21  1  0
 22 17  1  0
 22  5  1  0
  1 23  1  0
  1 24  1  0
  1 25  1  0
  2 26  1  0
  2 27  1  0
  2 28  1  0
  3 29  1  0
  3 30  1  0
  3 31  1  0
  4 32  1  0
  5 33  1  0
  5 34  1  0
 15 35  1  0
 15 36  1  0
 21 37  1  0
M  END
