
     RDKit          3D

 39 40  0  0  0  0  0  0  0  0999 V2000
   13.6002    2.5792   17.1661 C   0  0  0  0  0  0  0  0  0  0  0  0
   12.4865    1.8045   17.1619 N   0  0  0  0  0  0  0  0  0  0  0  0
   12.1812    1.0142   16.1015 C   0  0  0  0  0  0  0  0  0  0  0  0
   11.0168    0.2020   16.1232 N   0  0  0  0  0  0  0  0  0  0  0  0
   12.9884    0.9921   15.0171 N   0  0  0  0  0  0  0  0  0  0  0  0
   14.1133    1.7483   14.9643 C   0  0  0  0  0  0  0  0  0  0  0  0
   14.9267    1.6869   13.7972 N   0  0  0  0  0  0  0  0  0  0  0  0
   14.4659    2.5794   16.0571 C   0  0  0  0  0  0  0  0  0  0  0  0
   15.7784    3.3520   16.0308 C   0  0  0  0  0  0  0  0  0  0  0  0
   15.8093    4.6661   16.7890 C   0  0  0  0  0  0  0  0  0  0  0  0
   15.9898    5.8840   16.1196 C   0  0  0  0  0  0  0  0  0  0  0  0
   15.9792    7.1057   16.8243 C   0  0  0  0  0  0  0  0  0  0  0  0
   16.1834    8.3284   16.1670 O   0  0  0  0  0  0  0  0  0  0  0  0
   16.4086    8.4376   14.7634 C   0  0  0  0  0  0  0  0  0  0  0  0
   15.7552    7.0969   18.2183 C   0  0  0  0  0  0  0  0  0  0  0  0
   15.7775    8.2901   18.9422 O   0  0  0  0  0  0  0  0  0  0  0  0
   16.6496    9.3405   18.5476 C   0  0  0  0  0  0  0  0  0  0  0  0
   15.5381    5.8754   18.8885 C   0  0  0  0  0  0  0  0  0  0  0  0
   15.2801    5.8726   20.2658 O   0  0  0  0  0  0  0  0  0  0  0  0
   15.8059    6.8521   21.1602 C   0  0  0  0  0  0  0  0  0  0  0  0
   15.5816    4.6724   18.1646 C   0  0  0  0  0  0  0  0  0  0  0  0
   13.7948    3.1887   18.0354 H   0  0  0  0  0  0  0  0  0  0  0  0
   10.9719   -0.6856   15.5750 H   0  0  0  0  0  0  0  0  0  0  0  0
   10.9719   -0.6856   15.5750 H   0  0  0  0  0  0  0  0  0  0  0  0
   14.6682    1.0742   12.9922 H   0  0  0  0  0  0  0  0  0  0  0  0
   14.6683    1.0742   12.9921 H   0  0  0  0  0  0  0  0  0  0  0  0
   16.0625    3.5258   14.9699 H   0  0  0  0  0  0  0  0  0  0  0  0
   16.5686    2.6946   16.4536 H   0  0  0  0  0  0  0  0  0  0  0  0
   16.1428    5.8621   15.0492 H   0  0  0  0  0  0  0  0  0  0  0  0
   17.4218    8.8554   14.5924 H   0  0  0  0  0  0  0  0  0  0  0  0
   15.6636    9.1232   14.3069 H   0  0  0  0  0  0  0  0  0  0  0  0
   16.3564    7.4356   14.2870 H   0  0  0  0  0  0  0  0  0  0  0  0
   16.1365   10.3213   18.6376 H   0  0  0  0  0  0  0  0  0  0  0  0
   17.5413    9.3405   19.2072 H   0  0  0  0  0  0  0  0  0  0  0  0
   16.9787    9.1869   17.4978 H   0  0  0  0  0  0  0  0  0  0  0  0
   15.9572    7.8170   20.6309 H   0  0  0  0  0  0  0  0  0  0  0  0
   15.1262    6.9854   22.0282 H   0  0  0  0  0  0  0  0  0  0  0  0
   16.7879    6.5023   21.5392 H   0  0  0  0  0  0  0  0  0  0  0  0
   15.4326    3.7256   18.6646 H   0  0  0  0  0  0  0  0  0  0  0  0
  2  1  2  0
  3  2  1  0
  4  3  1  0
  5  3  2  0
  6  5  1  0
  7  6  1  0
  8  6  2  0
  8  1  1  0
  9  8  1  0
 10  9  1  0
 11 10  2  0
 12 11  1  0
 13 12  1  0
 14 13  1  0
 15 12  2  0
 16 15  1  0
 17 16  1  0
 18 15  1  0
 19 18  1  0
 20 19  1  0
 21 10  1  0
 21 18  2  0
  1 22  1  0
  4 23  1  0
  4 24  1  0
  7 25  1  0
  7 26  1  0
  9 27  1  0
  9 28  1  0
 11 29  1  0
 14 30  1  0
 14 31  1  0
 14 32  1  0
 17 33  1  0
 17 34  1  0
 17 35  1  0
 20 36  1  0
 20 37  1  0
 20 38  1  0
 21 39  1  0
M  END
