
     RDKit          3D

 26 25  0  0  0  0  0  0  0  0999 V2000
   43.2845   73.7264    7.3963 C   0  0  0  0  0  0  0  0  0  0  0  0
   42.9806   73.7076    6.0252 O   0  0  0  0  0  0  0  0  0  0  0  0
   43.5096   75.1767    7.8525 C   0  0  1  0  0  0  0  0  0  0  0  0
   42.3441   75.9336    7.6231 O   0  0  0  0  0  0  0  0  0  0  0  0
   43.9564   75.2455    9.3377 C   0  0  1  0  0  0  0  0  0  0  0  0
   45.3383   75.5204    9.4322 O   0  0  0  0  0  0  0  0  0  0  0  0
   43.1311   76.2857   10.1509 C   0  0  2  0  0  0  0  0  0  0  0  0
   43.5186   77.6014    9.8261 O   0  0  0  0  0  0  0  0  0  0  0  0
   43.2190   76.0202   11.6772 C   0  0  2  0  0  0  0  0  0  0  0  0
   41.9878   75.5319   12.1594 O   0  0  0  0  0  0  0  0  0  0  0  0
   43.6235   77.2860   12.4558 C   0  0  0  0  0  0  0  0  0  0  0  0
   43.5560   77.0309   13.8332 O   0  0  0  0  0  0  0  0  0  0  0  0
   44.2124   73.1370    7.5543 H   0  0  0  0  0  0  0  0  0  0  0  0
   42.4713   73.2461    7.9882 H   0  0  0  0  0  0  0  0  0  0  0  0
   43.1708   74.6175    5.6766 H   0  0  0  0  0  0  0  0  0  0  0  0
   44.3142   75.6143    7.2216 H   0  0  0  0  0  0  0  0  0  0  0  0
   41.6283   75.5604    8.2021 H   0  0  0  0  0  0  0  0  0  0  0  0
   43.7827   74.2387    9.7760 H   0  0  0  0  0  0  0  0  0  0  0  0
   45.7624   75.3017    8.5620 H   0  0  0  0  0  0  0  0  0  0  0  0
   42.0579   76.1908    9.8817 H   0  0  0  0  0  0  0  0  0  0  0  0
   43.9960   77.5747    8.9562 H   0  0  0  0  0  0  0  0  0  0  0  0
   43.9922   75.2427   11.8628 H   0  0  0  0  0  0  0  0  0  0  0  0
   41.2627   76.0286   11.6967 H   0  0  0  0  0  0  0  0  0  0  0  0
   42.9357   78.1230   12.1988 H   0  0  0  0  0  0  0  0  0  0  0  0
   44.6621   77.5795   12.1847 H   0  0  0  0  0  0  0  0  0  0  0  0
   43.8208   77.8752   14.2828 H   0  0  0  0  0  0  0  0  0  0  0  0
  2  1  1  0
  3  1  1  0
  3  4  1  0
  5  3  1  0
  5  6  1  0
  7  5  1  0
  7  8  1  0
  9  7  1  0
  9 10  1  0
 11  9  1  0
 12 11  1  0
  1 13  1  0
  1 14  1  0
  2 15  1  0
  3 16  1  6
  4 17  1  0
  5 18  1  1
  6 19  1  0
  7 20  1  6
  8 21  1  0
  9 22  1  6
 10 23  1  0
 11 24  1  0
 11 25  1  0
 12 26  1  0
M  END
