
     RDKit          3D

 28 29  0  0  0  0  0  0  0  0999 V2000
   -8.7946   39.6666   37.8443 N   0  0  0  0  0  0  0  0  0  0  0  0
   -8.2142   40.4961   36.7878 C   0  0  0  0  0  0  0  0  0  0  0  0
   -7.6298   39.5542   35.7208 C   0  0  2  0  0  0  0  0  0  0  0  0
   -7.0088   40.2678   34.6860 O   0  0  0  0  0  0  0  0  0  0  0  0
   -8.7640   38.6614   35.1849 C   0  0  1  0  0  0  0  0  0  0  0  0
   -8.3287   37.8932   34.0974 O   0  0  0  0  0  0  0  0  0  0  0  0
   -9.2814   37.7651   36.3287 C   0  0  2  0  0  0  0  0  0  0  0  0
  -10.3016   36.9237   35.8541 O   0  0  0  0  0  0  0  0  0  0  0  0
   -9.7929   38.6749   37.4639 C   0  0  1  0  0  0  0  0  0  0  0  0
  -10.0647   38.0164   38.8068 C   0  0  1  0  0  0  0  0  0  0  0  0
   -8.9164   37.3247   39.2552 O   0  0  0  0  0  0  0  0  0  0  0  0
  -10.2520   39.2630   39.6745 C   0  0  0  0  0  0  0  0  0  0  0  0
   -9.2845   40.2942   39.0665 C   0  0  0  0  0  0  0  0  0  0  0  0
   -8.9921   41.1615   36.3515 H   0  0  0  0  0  0  0  0  0  0  0  0
   -7.4006   41.1234   37.2117 H   0  0  0  0  0  0  0  0  0  0  0  0
   -6.8511   38.9177   36.1979 H   0  0  0  0  0  0  0  0  0  0  0  0
   -7.2951   41.2157   34.7631 H   0  0  0  0  0  0  0  0  0  0  0  0
   -9.5941   39.3078   34.8191 H   0  0  0  0  0  0  0  0  0  0  0  0
   -7.5848   37.3169   34.4153 H   0  0  0  0  0  0  0  0  0  0  0  0
   -8.4502   37.1282   36.7035 H   0  0  0  0  0  0  0  0  0  0  0  0
  -11.0687   36.9851   36.4820 H   0  0  0  0  0  0  0  0  0  0  0  0
  -10.7165   39.1946   37.1073 H   0  0  0  0  0  0  0  0  0  0  0  0
  -10.9678   37.3647   38.7823 H   0  0  0  0  0  0  0  0  0  0  0  0
   -9.1691   36.3661   39.3020 H   0  0  0  0  0  0  0  0  0  0  0  0
  -11.3006   39.6275   39.5972 H   0  0  0  0  0  0  0  0  0  0  0  0
  -10.0150   39.0610   40.7419 H   0  0  0  0  0  0  0  0  0  0  0  0
   -9.8167   41.2447   38.8395 H   0  0  0  0  0  0  0  0  0  0  0  0
   -8.4330   40.4888   39.7531 H   0  0  0  0  0  0  0  0  0  0  0  0
  2  1  1  0
  3  2  1  0
  3  4  1  0
  5  3  1  0
  5  6  1  0
  7  5  1  0
  7  8  1  0
  9  7  1  0
  9  1  1  0
 10  9  1  0
 10 11  1  0
 12 10  1  0
 13 12  1  0
 13  1  1  0
  2 14  1  0
  2 15  1  0
  3 16  1  1
  4 17  1  0
  5 18  1  6
  6 19  1  0
  7 20  1  1
  8 21  1  0
  9 22  1  6
 10 23  1  6
 11 24  1  0
 12 25  1  0
 12 26  1  0
 13 27  1  0
 13 28  1  0
M  END
