
     RDKit          3D

 30 32  0  0  0  0  0  0  0  0999 V2000
   23.8063  -11.7692  -13.4336 Cl  0  0  0  0  0  0  0  0  0  0  0  0
   23.0908  -16.6181  -15.1077 N   0  0  0  0  0  0  0  0  0  0  0  0
   23.8241  -15.4767  -15.0522 C   0  0  0  0  0  0  0  0  0  0  0  0
   24.9997  -15.4163  -15.7799 C   0  0  0  0  0  0  0  0  0  0  0  0
   25.4442  -16.4535  -16.5376 C   0  0  0  0  0  0  0  0  0  0  0  0
   24.6981  -17.6362  -16.6078 C   0  0  0  0  0  0  0  0  0  0  0  0
   23.4885  -17.6973  -15.8494 C   0  0  0  0  0  0  0  0  0  0  0  0
   23.4439  -14.3532  -14.3022 C   0  0  0  0  0  0  0  0  0  0  0  0
   24.2866  -13.1956  -14.3404 C   0  0  0  0  0  0  0  0  0  0  0  0
   25.5014  -13.1677  -15.1054 C   0  0  0  0  0  0  0  0  0  0  0  0
   25.8382  -14.3348  -15.8287 C   0  0  0  0  0  0  0  0  0  0  0  0
   22.2398  -14.3925  -13.5164 N   0  0  0  0  0  0  0  0  0  0  0  0
   26.3333  -11.9954  -15.1141 N   0  0  0  0  0  0  0  0  0  0  0  0
   22.6080  -18.8755  -15.8482 C   0  0  0  0  0  0  0  0  0  0  0  0
   23.1372  -20.1678  -16.1440 N   0  0  0  0  0  0  0  0  0  0  0  0
   21.3885  -18.7619  -15.5609 O   0  0  0  0  0  0  0  0  0  0  0  0
   26.6893  -15.9719  -17.1417 C   0  0  0  0  0  0  0  0  0  0  0  0
   26.9372  -14.6230  -16.7083 N   0  0  0  0  0  0  0  0  0  0  0  0
   27.4293  -16.6198  -17.9321 O   0  0  0  0  0  0  0  0  0  0  0  0
   28.0819  -13.7865  -17.0498 C   0  0  0  0  0  0  0  0  0  0  0  0
   25.0341  -18.4664  -17.2155 H   0  0  0  0  0  0  0  0  0  0  0  0
   22.0808  -15.1168  -12.7833 H   0  0  0  0  0  0  0  0  0  0  0  0
   21.4791  -13.6921  -13.6615 H   0  0  0  0  0  0  0  0  0  0  0  0
   26.5575  -11.4815  -14.2346 H   0  0  0  0  0  0  0  0  0  0  0  0
   26.8436  -11.6927  -15.9679 H   0  0  0  0  0  0  0  0  0  0  0  0
   22.8576  -20.6548  -17.0244 H   0  0  0  0  0  0  0  0  0  0  0  0
   23.8081  -20.6512  -15.5070 H   0  0  0  0  0  0  0  0  0  0  0  0
   28.7686  -14.3409  -17.7224 H   0  0  0  0  0  0  0  0  0  0  0  0
   28.6472  -13.5201  -16.1324 H   0  0  0  0  0  0  0  0  0  0  0  0
   27.7325  -12.8477  -17.5270 H   0  0  0  0  0  0  0  0  0  0  0  0
  3  2  2  0
  4  3  1  0
  5  4  2  0
  6  5  1  0
  7  6  2  0
  7  2  1  0
  8  3  1  0
  9  8  2  0
  9  1  1  0
 10  9  1  0
 11 10  2  0
 11  4  1  0
 12  8  1  0
 13 10  1  0
 14  7  1  0
 15 14  1  0
 16 14  2  0
 17  5  1  0
 18 17  1  0
 18 11  1  0
 19 17  2  0
 20 18  1  0
  6 21  1  0
 12 22  1  0
 12 23  1  0
 13 24  1  0
 13 25  1  0
 15 26  1  0
 15 27  1  0
 20 28  1  0
 20 29  1  0
 20 30  1  0
M  END
