
     RDKit          3D

 12 12  0  0  0  0  0  0  0  0999 V2000
   27.2489    8.3190    4.9908 C   0  0  0  0  0  0  0  0  0  0  0  0
   26.3728    7.4764    5.6818 C   0  0  0  0  0  0  0  0  0  0  0  0
   25.8968    6.3113    5.0722 C   0  0  0  0  0  0  0  0  0  0  0  0
   26.2964    5.9893    3.7710 C   0  0  0  0  0  0  0  0  0  0  0  0
   27.1725    6.8321    3.0788 C   0  0  0  0  0  0  0  0  0  0  0  0
   27.6498    7.9978    3.6893 C   0  0  0  0  0  0  0  0  0  0  0  0
   28.9731    9.2711    2.6570 I   0  0  0  0  0  0  0  0  0  0  0  0
   27.6156    9.2194    5.4665 H   0  0  0  0  0  0  0  0  0  0  0  0
   26.0635    7.7256    6.6886 H   0  0  0  0  0  0  0  0  0  0  0  0
   25.2189    5.6589    5.6072 H   0  0  0  0  0  0  0  0  0  0  0  0
   25.9276    5.0876    3.2995 H   0  0  0  0  0  0  0  0  0  0  0  0
   27.4799    6.5796    2.0723 H   0  0  0  0  0  0  0  0  0  0  0  0
  2  1  2  0
  3  2  1  0
  4  3  2  0
  5  4  1  0
  6  5  2  0
  6  1  1  0
  7  6  1  0
  1  8  1  0
  2  9  1  0
  3 10  1  0
  4 11  1  0
  5 12  1  0
M  END
