
     RDKit          3D

 59 62  0  0  0  0  0  0  0  0999 V2000
  -46.4465   10.8258   -4.0661 P   0  0  1  0  0  0  0  0  0  0  0  0
  -44.9966   11.8533   -1.8177 P   0  0  1  0  0  0  0  0  0  0  0  0
  -48.2724    9.8507   -2.5617 C   0  0  0  0  0  0  0  0  0  0  0  0
  -48.0317   10.9094   -3.4662 O   0  0  0  0  0  0  0  0  0  0  0  0
  -49.4807    9.0303   -3.0339 C   0  0  1  0  0  0  0  0  0  0  0  0
  -50.6481    9.8347   -3.0581 O   0  0  0  0  0  0  0  0  0  0  0  0
  -49.2601    8.4307   -4.4323 C   0  0  1  0  0  0  0  0  0  0  0  0
  -49.6136    7.0692   -4.4122 O   0  0  0  0  0  0  0  0  0  0  0  0
  -50.2273    9.2191   -5.2842 C   0  0  1  0  0  0  0  0  0  0  0  0
  -50.7196    8.4741   -6.3682 O   0  0  0  0  0  0  0  0  0  0  0  0
  -51.3116    9.5484   -4.2702 C   0  0  2  0  0  0  0  0  0  0  0  0
  -42.1314    8.3230   -0.3771 C   0  0  2  0  0  0  0  0  0  0  0  0
  -56.0428   11.2694   -5.5191 N   0  0  0  0  0  0  0  0  0  0  0  0
  -46.3199    9.5975   -4.9356 O   0  0  0  0  0  0  0  0  0  0  0  0
  -44.1958   12.9320   -2.5087 O   0  0  0  0  0  0  0  0  0  0  0  0
  -41.6358    7.1011   -0.8623 O   0  0  0  0  0  0  0  0  0  0  0  0
  -55.6636   10.0097   -5.1385 C   0  0  0  0  0  0  0  0  0  0  0  0
  -42.4386    8.2299    1.1205 C   0  0  2  0  0  0  0  0  0  0  0  0
  -46.1472   12.2005   -4.9832 O   0  0  0  0  0  0  0  0  0  0  0  0
  -46.3314   12.4799   -1.0044 O   0  0  0  0  0  0  0  0  0  0  0  0
  -41.7756    7.1734    1.7670 O   0  0  0  0  0  0  0  0  0  0  0  0
  -43.9348    8.0381    1.1345 C   0  0  2  0  0  0  0  0  0  0  0  0
  -54.3554    9.7344   -4.8450 N   0  0  0  0  0  0  0  0  0  0  0  0
  -45.3481   10.5409   -2.8188 O   0  0  0  0  0  0  0  0  0  0  0  0
  -44.2891    6.6787    1.0177 O   0  0  0  0  0  0  0  0  0  0  0  0
  -53.4470   10.7405   -4.9387 C   0  0  0  0  0  0  0  0  0  0  0  0
  -44.3561    8.8100   -0.1098 C   0  0  2  0  0  0  0  0  0  0  0  0
  -43.3264    8.6518   -1.0668 O   0  0  0  0  0  0  0  0  0  0  0  0
  -53.7952   11.9987   -5.3119 C   0  0  0  0  0  0  0  0  0  0  0  0
  -44.6107   10.3069    0.2010 C   0  0  0  0  0  0  0  0  0  0  0  0
  -43.9341   11.1465   -0.7092 O   0  0  0  0  0  0  0  0  0  0  0  0
  -55.1346   12.2853   -5.6177 C   0  0  0  0  0  0  0  0  0  0  0  0
  -55.5609   13.5841   -6.0167 N   0  0  0  0  0  0  0  0  0  0  0  0
  -52.7076   12.8006   -5.3129 N   0  0  0  0  0  0  0  0  0  0  0  0
  -51.7036   11.9654   -4.9227 C   0  0  0  0  0  0  0  0  0  0  0  0
  -52.1247   10.6942   -4.6918 N   0  0  0  0  0  0  0  0  0  0  0  0
  -47.4202    9.1420   -2.4298 H   0  0  0  0  0  0  0  0  0  0  0  0
  -48.4982   10.2803   -1.5625 H   0  0  0  0  0  0  0  0  0  0  0  0
  -49.6381    8.2154   -2.2915 H   0  0  0  0  0  0  0  0  0  0  0  0
  -48.2151    8.5555   -4.7979 H   0  0  0  0  0  0  0  0  0  0  0  0
  -49.1701    6.6447   -5.1925 H   0  0  0  0  0  0  0  0  0  0  0  0
  -49.7341   10.1524   -5.6440 H   0  0  0  0  0  0  0  0  0  0  0  0
  -51.3641    9.0620   -6.8419 H   0  0  0  0  0  0  0  0  0  0  0  0
  -51.9693    8.6611   -4.1165 H   0  0  0  0  0  0  0  0  0  0  0  0
  -41.3761    9.1241   -0.5465 H   0  0  0  0  0  0  0  0  0  0  0  0
  -41.6115    7.1833   -1.8511 H   0  0  0  0  0  0  0  0  0  0  0  0
  -56.4044    9.2251   -5.0700 H   0  0  0  0  0  0  0  0  0  0  0  0
  -42.1897    9.1966    1.6190 H   0  0  0  0  0  0  0  0  0  0  0  0
  -45.2266   12.0791   -5.3277 H   0  0  0  0  0  0  0  0  0  0  0  0
  -47.0850   11.8842   -1.2405 H   0  0  0  0  0  0  0  0  0  0  0  0
  -42.3370    6.3666    1.6288 H   0  0  0  0  0  0  0  0  0  0  0  0
  -44.3878    8.4414    2.0668 H   0  0  0  0  0  0  0  0  0  0  0  0
  -43.9428    6.3246    0.1572 H   0  0  0  0  0  0  0  0  0  0  0  0
  -45.2929    8.3765   -0.5255 H   0  0  0  0  0  0  0  0  0  0  0  0
  -45.7077   10.4795    0.2733 H   0  0  0  0  0  0  0  0  0  0  0  0
  -44.2244   10.5688    1.2089 H   0  0  0  0  0  0  0  0  0  0  0  0
  -54.8787   14.3708   -6.0957 H   0  0  0  0  0  0  0  0  0  0  0  0
  -56.5658   13.7639   -6.2359 H   0  0  0  0  0  0  0  0  0  0  0  0
  -50.6767   12.2884   -4.8084 H   0  0  0  0  0  0  0  0  0  0  0  0
  4  3  1  0
  1  4  1  1
  5  3  1  0
  6  5  1  0
  7  5  1  0
  7  8  1  0
  9  7  1  0
  9 10  1  0
 11  9  1  0
 11  6  1  0
 14  1  2  0
 15  2  2  0
 12 16  1  0
 17 13  2  0
 18 12  1  0
 19  1  1  0
  2 20  1  1
 18 21  1  0
 22 18  1  0
 23 17  1  0
 24  2  1  0
 24  1  1  0
 22 25  1  0
 26 23  2  0
 27 22  1  0
 28 27  1  0
 28 12  1  0
 29 26  1  0
 27 30  1  0
 31 30  1  0
 31  2  1  0
 32 13  1  0
 32 29  2  0
 33 32  1  0
 34 29  1  0
 35 34  2  0
 36 26  1  0
 11 36  1  0
 36 35  1  0
  3 37  1  0
  3 38  1  0
  5 39  1  1
  7 40  1  6
  8 41  1  0
  9 42  1  6
 10 43  1  0
 11 44  1  1
 12 45  1  1
 16 46  1  0
 17 47  1  0
 18 48  1  1
 19 49  1  0
 20 50  1  0
 21 51  1  0
 22 52  1  1
 25 53  1  0
 27 54  1  6
 30 55  1  0
 30 56  1  0
 33 57  1  0
 33 58  1  0
 35 59  1  0
M  END
