
     RDKit          3D

 59 62  0  0  0  0  0  0  0  0999 V2000
  -30.6072    4.7133  -26.6149 P   0  0  1  0  0  0  0  0  0  0  0  0
  -33.3806    4.9005  -26.8201 P   0  0  2  0  0  0  0  0  0  0  0  0
  -29.0372    2.8922  -25.8111 C   0  0  0  0  0  0  0  0  0  0  0  0
  -29.5824    3.4337  -27.0037 O   0  0  0  0  0  0  0  0  0  0  0  0
  -27.9220    1.9123  -26.1049 C   0  0  1  0  0  0  0  0  0  0  0  0
  -28.0607    1.4887  -27.4479 O   0  0  0  0  0  0  0  0  0  0  0  0
  -26.5322    2.5179  -25.9069 C   0  0  1  0  0  0  0  0  0  0  0  0
  -25.6599    1.5179  -25.4473 O   0  0  0  0  0  0  0  0  0  0  0  0
  -26.1945    2.9476  -27.3062 C   0  0  1  0  0  0  0  0  0  0  0  0
  -24.8095    2.9662  -27.5262 O   0  0  0  0  0  0  0  0  0  0  0  0
  -26.8924    1.8802  -28.1301 C   0  0  2  0  0  0  0  0  0  0  0  0
  -33.5339    3.1187  -21.7775 C   0  0  2  0  0  0  0  0  0  0  0  0
  -25.7123    1.4700  -33.1162 N   0  0  0  0  0  0  0  0  0  0  0  0
  -30.7551    4.7844  -25.1076 O   0  0  0  0  0  0  0  0  0  0  0  0
  -34.4105    4.4742  -27.8350 O   0  0  0  0  0  0  0  0  0  0  0  0
  -33.3407    1.9700  -20.9831 O   0  0  0  0  0  0  0  0  0  0  0  0
  -25.1644    0.8315  -32.0377 C   0  0  0  0  0  0  0  0  0  0  0  0
  -34.9730    3.2377  -22.2644 C   0  0  2  0  0  0  0  0  0  0  0  0
  -30.0248    6.1346  -27.2813 O   0  0  0  0  0  0  0  0  0  0  0  0
  -33.3634    6.5598  -26.5908 O   0  0  0  0  0  0  0  0  0  0  0  0
  -35.8884    2.6442  -21.3815 O   0  0  0  0  0  0  0  0  0  0  0  0
  -34.9492    2.5361  -23.6091 C   0  0  2  0  0  0  0  0  0  0  0  0
  -25.6213    1.0853  -30.7767 N   0  0  0  0  0  0  0  0  0  0  0  0
  -31.9872    4.3473  -27.4839 O   0  0  0  0  0  0  0  0  0  0  0  0
  -35.5593    1.2758  -23.5826 O   0  0  0  0  0  0  0  0  0  0  0  0
  -26.6265    1.9822  -30.6222 C   0  0  0  0  0  0  0  0  0  0  0  0
  -33.4477    2.3621  -23.9007 C   0  0  2  0  0  0  0  0  0  0  0  0
  -32.7096    3.0633  -22.9173 O   0  0  0  0  0  0  0  0  0  0  0  0
  -27.1940    2.6319  -31.6689 C   0  0  0  0  0  0  0  0  0  0  0  0
  -33.1147    2.8938  -25.2795 C   0  0  0  0  0  0  0  0  0  0  0  0
  -33.6707    4.1799  -25.3391 O   0  0  0  0  0  0  0  0  0  0  0  0
  -26.7262    2.3740  -32.9710 C   0  0  0  0  0  0  0  0  0  0  0  0
  -27.2701    3.0112  -34.1219 N   0  0  0  0  0  0  0  0  0  0  0  0
  -28.1721    3.4546  -31.2225 N   0  0  0  0  0  0  0  0  0  0  0  0
  -28.1519    3.2599  -29.8702 C   0  0  0  0  0  0  0  0  0  0  0  0
  -27.2135    2.3575  -29.4784 N   0  0  0  0  0  0  0  0  0  0  0  0
  -28.5236    3.6554  -25.1851 H   0  0  0  0  0  0  0  0  0  0  0  0
  -29.8439    2.3872  -25.2309 H   0  0  0  0  0  0  0  0  0  0  0  0
  -28.0344    1.0266  -25.4369 H   0  0  0  0  0  0  0  0  0  0  0  0
  -26.4526    3.3957  -25.2289 H   0  0  0  0  0  0  0  0  0  0  0  0
  -25.5085    1.6942  -24.4817 H   0  0  0  0  0  0  0  0  0  0  0  0
  -26.6361    3.9543  -27.5000 H   0  0  0  0  0  0  0  0  0  0  0  0
  -24.6742    3.3783  -28.4190 H   0  0  0  0  0  0  0  0  0  0  0  0
  -26.2316    0.9856  -28.2010 H   0  0  0  0  0  0  0  0  0  0  0  0
  -33.2669    4.0136  -21.1763 H   0  0  0  0  0  0  0  0  0  0  0  0
  -32.3916    1.6913  -21.0548 H   0  0  0  0  0  0  0  0  0  0  0  0
  -24.3632    0.1206  -32.1850 H   0  0  0  0  0  0  0  0  0  0  0  0
  -35.2259    4.3137  -22.4176 H   0  0  0  0  0  0  0  0  0  0  0  0
  -30.1948    6.0448  -28.2528 H   0  0  0  0  0  0  0  0  0  0  0  0
  -34.0348    6.9096  -27.2293 H   0  0  0  0  0  0  0  0  0  0  0  0
  -36.7473    3.1268  -21.5029 H   0  0  0  0  0  0  0  0  0  0  0  0
  -35.4911    3.1686  -24.3512 H   0  0  0  0  0  0  0  0  0  0  0  0
  -36.5406    1.4260  -23.6157 H   0  0  0  0  0  0  0  0  0  0  0  0
  -33.1536    1.2879  -23.8657 H   0  0  0  0  0  0  0  0  0  0  0  0
  -32.0113    2.9038  -25.3804 H   0  0  0  0  0  0  0  0  0  0  0  0
  -33.5665    2.2307  -26.0523 H   0  0  0  0  0  0  0  0  0  0  0  0
  -28.0059    3.7460  -34.0276 H   0  0  0  0  0  0  0  0  0  0  0  0
  -26.9372    2.7492  -35.0763 H   0  0  0  0  0  0  0  0  0  0  0  0
  -28.8171    3.7704  -29.1867 H   0  0  0  0  0  0  0  0  0  0  0  0
  4  3  1  0
  1  4  1  1
  5  3  1  0
  6  5  1  0
  7  5  1  0
  7  8  1  0
  9  7  1  0
  9 10  1  0
 11  9  1  0
 11  6  1  0
 14  1  2  0
 15  2  2  0
 12 16  1  0
 17 13  2  0
 18 12  1  0
 19  1  1  0
  2 20  1  1
 18 21  1  0
 22 18  1  0
 23 17  1  0
 24  2  1  0
 24  1  1  0
 22 25  1  0
 26 23  2  0
 27 22  1  0
 28 27  1  0
 28 12  1  0
 29 26  1  0
 27 30  1  0
 31 30  1  0
 31  2  1  0
 32 29  2  0
 32 13  1  0
 33 32  1  0
 34 29  1  0
 35 34  2  0
 36 35  1  0
 36 26  1  0
 11 36  1  0
  3 37  1  0
  3 38  1  0
  5 39  1  1
  7 40  1  1
  8 41  1  0
  9 42  1  6
 10 43  1  0
 11 44  1  6
 12 45  1  1
 16 46  1  0
 17 47  1  0
 18 48  1  6
 19 49  1  0
 20 50  1  0
 21 51  1  0
 22 52  1  6
 25 53  1  0
 27 54  1  6
 30 55  1  0
 30 56  1  0
 33 57  1  0
 33 58  1  0
 35 59  1  0
M  END
