
     RDKit          3D

 59 62  0  0  0  0  0  0  0  0999 V2000
  -46.3619   10.8831   -3.5730 P   0  0  1  0  0  0  0  0  0  0  0  0
  -44.4376   11.7823   -1.6491 P   0  0  1  0  0  0  0  0  0  0  0  0
  -48.0171    9.8787   -1.8998 C   0  0  0  0  0  0  0  0  0  0  0  0
  -47.8538   10.9800   -2.7702 O   0  0  0  0  0  0  0  0  0  0  0  0
  -49.2113    9.0296   -2.3568 C   0  0  1  0  0  0  0  0  0  0  0  0
  -50.3184    9.8580   -2.6706 O   0  0  0  0  0  0  0  0  0  0  0  0
  -48.8708    8.1678   -3.5837 C   0  0  1  0  0  0  0  0  0  0  0  0
  -49.3049    6.8492   -3.3568 O   0  0  0  0  0  0  0  0  0  0  0  0
  -49.6870    8.8162   -4.6773 C   0  0  1  0  0  0  0  0  0  0  0  0
  -50.0977    7.8981   -5.6577 O   0  0  0  0  0  0  0  0  0  0  0  0
  -50.8570    9.3722   -3.8810 C   0  0  2  0  0  0  0  0  0  0  0  0
  -42.5606    7.8245    0.2379 C   0  0  2  0  0  0  0  0  0  0  0  0
  -54.8889   10.6801   -6.8708 N   0  0  0  0  0  0  0  0  0  0  0  0
  -46.3927    9.7036   -4.5156 O   0  0  0  0  0  0  0  0  0  0  0  0
  -43.6185   12.7005   -2.5255 O   0  0  0  0  0  0  0  0  0  0  0  0
  -42.7269    6.4321    0.1509 O   0  0  0  0  0  0  0  0  0  0  0  0
  -54.5718    9.4534   -6.3511 C   0  0  0  0  0  0  0  0  0  0  0  0
  -42.2607    8.2480    1.6790 C   0  0  2  0  0  0  0  0  0  0  0  0
  -46.1304   12.2985   -4.4467 O   0  0  0  0  0  0  0  0  0  0  0  0
  -45.5227   12.6330   -0.6822 O   0  0  0  0  0  0  0  0  0  0  0  0
  -41.7803    7.2025    2.4850 O   0  0  0  0  0  0  0  0  0  0  0  0
  -43.6013    8.7473    2.1573 C   0  0  2  0  0  0  0  0  0  0  0  0
  -53.4552    9.2924   -5.5760 N   0  0  0  0  0  0  0  0  0  0  0  0
  -45.1254   10.4939   -2.4947 O   0  0  0  0  0  0  0  0  0  0  0  0
  -44.3955    7.7024    2.6718 O   0  0  0  0  0  0  0  0  0  0  0  0
  -52.6742   10.3778   -5.3351 C   0  0  0  0  0  0  0  0  0  0  0  0
  -44.2043    9.2936    0.8690 C   0  0  2  0  0  0  0  0  0  0  0  0
  -43.7521    8.4668   -0.1860 O   0  0  0  0  0  0  0  0  0  0  0  0
  -52.9656   11.6057   -5.8362 C   0  0  0  0  0  0  0  0  0  0  0  0
  -43.8107   10.7739    0.6325 C   0  0  0  0  0  0  0  0  0  0  0  0
  -43.3171   10.9754   -0.6740 O   0  0  0  0  0  0  0  0  0  0  0  0
  -54.1072   11.7754   -6.6347 C   0  0  0  0  0  0  0  0  0  0  0  0
  -54.4642   13.0371   -7.1902 N   0  0  0  0  0  0  0  0  0  0  0  0
  -52.0368   12.5024   -5.4374 N   0  0  0  0  0  0  0  0  0  0  0  0
  -51.1866   11.7548   -4.6785 C   0  0  0  0  0  0  0  0  0  0  0  0
  -51.5476   10.4470   -4.6020 N   0  0  0  0  0  0  0  0  0  0  0  0
  -47.1338    9.2000   -1.8295 H   0  0  0  0  0  0  0  0  0  0  0  0
  -48.2184   10.2606   -0.8763 H   0  0  0  0  0  0  0  0  0  0  0  0
  -49.4997    8.3768   -1.5020 H   0  0  0  0  0  0  0  0  0  0  0  0
  -47.7857    8.1817   -3.8359 H   0  0  0  0  0  0  0  0  0  0  0  0
  -49.1218    6.6455   -2.4025 H   0  0  0  0  0  0  0  0  0  0  0  0
  -49.1016    9.6451   -5.1398 H   0  0  0  0  0  0  0  0  0  0  0  0
  -50.7625    7.3030   -5.2226 H   0  0  0  0  0  0  0  0  0  0  0  0
  -51.5796    8.5554   -3.6481 H   0  0  0  0  0  0  0  0  0  0  0  0
  -41.7184    8.1401   -0.4191 H   0  0  0  0  0  0  0  0  0  0  0  0
  -43.0715    6.2491   -0.7618 H   0  0  0  0  0  0  0  0  0  0  0  0
  -55.2088    8.6040   -6.5555 H   0  0  0  0  0  0  0  0  0  0  0  0
  -41.5337    9.0945    1.6812 H   0  0  0  0  0  0  0  0  0  0  0  0
  -45.3158   12.1329   -4.9852 H   0  0  0  0  0  0  0  0  0  0  0  0
  -46.3797   12.1450   -0.7589 H   0  0  0  0  0  0  0  0  0  0  0  0
  -42.5802    6.7206    2.8215 H   0  0  0  0  0  0  0  0  0  0  0  0
  -43.4884    9.5246    2.9448 H   0  0  0  0  0  0  0  0  0  0  0  0
  -43.9646    6.8327    2.4630 H   0  0  0  0  0  0  0  0  0  0  0  0
  -45.3145    9.2315    0.9142 H   0  0  0  0  0  0  0  0  0  0  0  0
  -44.6668   11.4254    0.9172 H   0  0  0  0  0  0  0  0  0  0  0  0
  -42.9939   11.0768    1.3216 H   0  0  0  0  0  0  0  0  0  0  0  0
  -53.7318   13.7360   -7.4462 H   0  0  0  0  0  0  0  0  0  0  0  0
  -55.4680   13.2773   -7.3482 H   0  0  0  0  0  0  0  0  0  0  0  0
  -50.3144   12.1672   -4.1874 H   0  0  0  0  0  0  0  0  0  0  0  0
  4  3  1  0
  1  4  1  1
  5  3  1  0
  6  5  1  0
  7  5  1  0
  7  8  1  0
  9  7  1  0
  9 10  1  0
 11  9  1  0
 11  6  1  0
 14  1  2  0
 15  2  2  0
 12 16  1  0
 17 13  2  0
 18 12  1  0
 19  1  1  0
  2 20  1  1
 18 21  1  0
 22 18  1  0
 23 17  1  0
 24  2  1  0
 24  1  1  0
 22 25  1  0
 26 23  2  0
 27 22  1  0
 28 27  1  0
 28 12  1  0
 29 26  1  0
 27 30  1  0
 31 30  1  0
 31  2  1  0
 32 13  1  0
 32 29  2  0
 33 32  1  0
 34 29  1  0
 35 34  2  0
 36 26  1  0
 11 36  1  0
 36 35  1  0
  3 37  1  0
  3 38  1  0
  5 39  1  1
  7 40  1  6
  8 41  1  0
  9 42  1  6
 10 43  1  0
 11 44  1  1
 12 45  1  6
 16 46  1  0
 17 47  1  0
 18 48  1  6
 19 49  1  0
 20 50  1  0
 21 51  1  0
 22 52  1  1
 25 53  1  0
 27 54  1  1
 30 55  1  0
 30 56  1  0
 33 57  1  0
 33 58  1  0
 35 59  1  0
M  END
