
     RDKit          3D

 42 44  0  0  0  0  0  0  0  0999 V2000
    3.0837   40.0227   38.6457 N   0  0  0  0  0  0  0  0  0  0  0  0
    6.1473   40.0338   40.7501 C   0  0  0  0  0  0  0  0  0  0  0  0
    6.6329   44.2178   36.2649 C   0  0  0  0  0  0  0  0  0  0  0  0
    5.8048   46.0690   34.9471 C   0  0  0  0  0  0  0  0  0  0  0  0
    5.3492   43.6588   36.2742 C   0  0  0  0  0  0  0  0  0  0  0  0
    4.5370   45.5040   34.9420 C   0  0  0  0  0  0  0  0  0  0  0  0
    1.0733   40.7094   37.4728 C   0  0  0  0  0  0  0  0  0  0  0  0
    0.4383   41.5150   36.5318 C   0  0  0  0  0  0  0  0  0  0  0  0
    1.8675   44.1554   34.7792 C   0  0  0  0  0  0  0  0  0  0  0  0
    4.9114   40.6491   40.1122 C   0  0  0  0  0  0  0  0  0  0  0  0
    5.2784   40.5059   37.5569 C   0  0  0  0  0  0  0  0  0  0  0  0
    8.2107   46.0473   35.5592 C   0  0  0  0  0  0  0  0  0  0  0  0
    6.8675   45.4359   35.6023 C   0  0  0  0  0  0  0  0  0  0  0  0
    4.2907   44.2952   35.6001 C   0  0  0  0  0  0  0  0  0  0  0  0
    2.4226   40.9314   37.7790 C   0  0  0  0  0  0  0  0  0  0  0  0
    2.9218   43.7452   35.5840 C   0  0  0  0  0  0  0  0  0  0  0  0
    1.1892   42.5271   35.9538 C   0  0  0  0  0  0  0  0  0  0  0  0
    4.5280   39.9502   38.7976 C   0  0  2  0  0  0  0  0  0  0  0  0
    0.7729   43.3911   35.0146 N   0  0  0  0  0  0  0  0  0  0  0  0
    3.0962   41.9560   37.1872 N   0  0  0  0  0  0  0  0  0  0  0  0
    2.4628   42.7202   36.3108 N   0  0  0  0  0  0  0  0  0  0  0  0
    8.5161   46.8479   34.6341 O   0  0  0  0  0  0  0  0  0  0  0  0
    5.1675   39.6354   36.4582 O   0  0  0  0  0  0  0  0  0  0  0  0
    9.1527   45.7216   36.5196 O   0  0  0  0  0  0  0  0  0  0  0  0
    2.5133   39.3033   39.1471 H   0  0  0  0  0  0  0  0  0  0  0  0
    6.5298   40.7098   41.5439 H   0  0  0  0  0  0  0  0  0  0  0  0
    6.9484   39.8933   39.9946 H   0  0  0  0  0  0  0  0  0  0  0  0
    5.9005   39.0541   41.2120 H   0  0  0  0  0  0  0  0  0  0  0  0
    7.4325   43.7108   36.7903 H   0  0  0  0  0  0  0  0  0  0  0  0
    5.9540   47.0034   34.4200 H   0  0  0  0  0  0  0  0  0  0  0  0
    5.1815   42.7633   36.8473 H   0  0  0  0  0  0  0  0  0  0  0  0
    3.7523   46.0166   34.4012 H   0  0  0  0  0  0  0  0  0  0  0  0
    0.5273   39.8949   37.9321 H   0  0  0  0  0  0  0  0  0  0  0  0
   -0.5957   41.3508   36.2567 H   0  0  0  0  0  0  0  0  0  0  0  0
    1.8804   44.9710   34.0692 H   0  0  0  0  0  0  0  0  0  0  0  0
    4.0791   40.5606   40.8456 H   0  0  0  0  0  0  0  0  0  0  0  0
    5.0931   41.7272   39.9419 H   0  0  0  0  0  0  0  0  0  0  0  0
    4.9803   41.5372   37.2788 H   0  0  0  0  0  0  0  0  0  0  0  0
    6.3562   40.5762   37.8121 H   0  0  0  0  0  0  0  0  0  0  0  0
    4.7961   38.8722   38.8837 H   0  0  0  0  0  0  0  0  0  0  0  0
    6.0074   39.7294   35.9383 H   0  0  0  0  0  0  0  0  0  0  0  0
    9.0230   44.9199   37.1252 H   0  0  0  0  0  0  0  0  0  0  0  0
  5  3  2  0
  6  4  1  0
  8  7  2  0
 10  2  1  0
 13  3  1  0
 13 12  1  0
 13  4  2  0
 14  6  2  0
 14  5  1  0
 15  7  1  0
 15  1  1  0
 16 14  1  0
 16  9  2  0
 17  8  1  0
 18 11  1  0
 18  1  1  0
 18 10  1  0
 19 17  2  0
 19  9  1  0
 20 15  2  0
 21 20  1  0
 21 17  1  0
 21 16  1  0
 22 12  2  0
 23 11  1  0
 24 12  1  0
  1 25  1  0
  2 26  1  0
  2 27  1  0
  2 28  1  0
  3 29  1  0
  4 30  1  0
  5 31  1  0
  6 32  1  0
  7 33  1  0
  8 34  1  0
  9 35  1  0
 10 36  1  0
 10 37  1  0
 11 38  1  0
 11 39  1  0
 18 40  1  1
 23 41  1  0
 24 42  1  0
M  END
