
     RDKit          3D

 42 44  0  0  0  0  0  0  0  0999 V2000
    3.5994   40.7723   39.2498 N   0  0  0  0  0  0  0  0  0  0  0  0
    6.2292   43.2633   40.1345 C   0  0  0  0  0  0  0  0  0  0  0  0
    4.5201   45.4090   35.4100 C   0  0  0  0  0  0  0  0  0  0  0  0
    3.5735   45.2271   33.1918 C   0  0  0  0  0  0  0  0  0  0  0  0
    3.5639   44.5033   35.8851 C   0  0  0  0  0  0  0  0  0  0  0  0
    2.6379   44.3155   33.6611 C   0  0  0  0  0  0  0  0  0  0  0  0
    1.3542   40.3038   38.4570 C   0  0  0  0  0  0  0  0  0  0  0  0
    0.3402   40.4857   37.5207 C   0  0  0  0  0  0  0  0  0  0  0  0
    0.3717   42.7188   34.8564 C   0  0  0  0  0  0  0  0  0  0  0  0
    4.8938   42.7977   39.5752 C   0  0  0  0  0  0  0  0  0  0  0  0
    5.5150   41.1401   37.6907 C   0  0  0  0  0  0  0  0  0  0  0  0
    5.5284   46.7230   33.5149 C   0  0  0  0  0  0  0  0  0  0  0  0
    4.5263   45.7822   34.0541 C   0  0  0  0  0  0  0  0  0  0  0  0
    2.6196   43.9393   35.0075 C   0  0  0  0  0  0  0  0  0  0  0  0
    2.5298   41.0605   38.3627 C   0  0  0  0  0  0  0  0  0  0  0  0
    1.5925   42.9830   35.4627 C   0  0  0  0  0  0  0  0  0  0  0  0
    0.5484   41.4419   36.5385 C   0  0  0  0  0  0  0  0  0  0  0  0
    4.9358   41.3301   39.1188 C   0  0  2  0  0  0  0  0  0  0  0  0
   -0.2897   41.7504   35.5365 N   0  0  0  0  0  0  0  0  0  0  0  0
    2.6611   41.9968   37.3829 N   0  0  0  0  0  0  0  0  0  0  0  0
    1.6731   42.1641   36.5174 N   0  0  0  0  0  0  0  0  0  0  0  0
    5.6261   46.9047   32.2709 O   0  0  0  0  0  0  0  0  0  0  0  0
    5.1121   39.9139   37.1329 O   0  0  0  0  0  0  0  0  0  0  0  0
    6.3866   47.3895   34.3722 O   0  0  0  0  0  0  0  0  0  0  0  0
    3.4518   40.0544   39.9962 H   0  0  0  0  0  0  0  0  0  0  0  0
    6.1126   44.2748   40.5777 H   0  0  0  0  0  0  0  0  0  0  0  0
    6.9917   43.3198   39.3299 H   0  0  0  0  0  0  0  0  0  0  0  0
    6.5817   42.5706   40.9283 H   0  0  0  0  0  0  0  0  0  0  0  0
    5.2372   45.8306   36.1031 H   0  0  0  0  0  0  0  0  0  0  0  0
    3.5568   45.4867   32.1404 H   0  0  0  0  0  0  0  0  0  0  0  0
    3.5367   44.2888   36.9395 H   0  0  0  0  0  0  0  0  0  0  0  0
    1.9370   43.8937   32.9527 H   0  0  0  0  0  0  0  0  0  0  0  0
    1.2389   39.5523   39.2280 H   0  0  0  0  0  0  0  0  0  0  0  0
   -0.5679   39.8977   37.5535 H   0  0  0  0  0  0  0  0  0  0  0  0
   -0.0288   43.2067   33.9783 H   0  0  0  0  0  0  0  0  0  0  0  0
    4.1342   42.9235   40.3786 H   0  0  0  0  0  0  0  0  0  0  0  0
    4.6048   43.4587   38.7362 H   0  0  0  0  0  0  0  0  0  0  0  0
    5.2940   41.9815   37.0029 H   0  0  0  0  0  0  0  0  0  0  0  0
    6.6217   41.1162   37.7707 H   0  0  0  0  0  0  0  0  0  0  0  0
    5.5974   40.7662   39.8155 H   0  0  0  0  0  0  0  0  0  0  0  0
    5.0666   40.0521   36.1514 H   0  0  0  0  0  0  0  0  0  0  0  0
    7.3840   47.2132   34.3514 H   0  0  0  0  0  0  0  0  0  0  0  0
  5  3  2  0
  6  4  1  0
  8  7  2  0
 10  2  1  0
 13  3  1  0
 13 12  1  0
 13  4  2  0
 14  6  2  0
 14  5  1  0
 15  7  1  0
 15  1  1  0
 16 14  1  0
 16  9  2  0
 17  8  1  0
 18 11  1  0
 18  1  1  0
 18 10  1  0
 19 17  2  0
 19  9  1  0
 20 15  2  0
 21 20  1  0
 21 17  1  0
 21 16  1  0
 22 12  2  0
 23 11  1  0
 24 12  1  0
  1 25  1  0
  2 26  1  0
  2 27  1  0
  2 28  1  0
  3 29  1  0
  4 30  1  0
  5 31  1  0
  6 32  1  0
  7 33  1  0
  8 34  1  0
  9 35  1  0
 10 36  1  0
 10 37  1  0
 11 38  1  0
 11 39  1  0
 18 40  1  1
 23 41  1  0
 24 42  1  0
M  END
