
     RDKit          3D

 73 77  0  0  0  0  0  0  0  0999 V2000
    1.5827  101.5144   82.4170 P   0  0  1  0  0  0  0  0  0  0  0  0
    3.5378   99.5031   82.0719 P   0  0  2  0  0  0  0  0  0  0  0  0
   -2.6394  101.4511   80.0807 C   0  0  1  0  0  0  0  0  0  0  0  0
    6.4991  102.7198   84.0627 C   0  0  1  0  0  0  0  0  0  0  0  0
   -5.2368  105.9285   80.4898 N   0  0  0  0  0  0  0  0  0  0  0  0
    5.6561  102.8101   85.2665 N   0  0  0  0  0  0  0  0  0  0  0  0
    0.6161  102.0518   83.6720 O   0  0  0  0  0  0  0  0  0  0  0  0
    3.0436   99.3913   80.4684 O   0  0  0  0  0  0  0  0  0  0  0  0
   -5.3872  104.9450   79.5451 C   0  0  0  0  0  0  0  0  0  0  0  0
   -1.5065  101.5980   79.0724 C   0  0  2  0  0  0  0  0  0  0  0  0
    7.2509  101.4015   83.9323 C   0  0  2  0  0  0  0  0  0  0  0  0
    5.8431  103.9297   86.1427 C   0  0  0  0  0  0  0  0  0  0  0  0
    2.4348  102.6710   81.9528 O   0  0  0  0  0  0  0  0  0  0  0  0
   -1.9810  102.0220   77.8222 O   0  0  0  0  0  0  0  0  0  0  0  0
    8.4253  101.3739   84.7007 O   0  0  0  0  0  0  0  0  0  0  0  0
    3.6971   98.1163   82.6469 O   0  0  0  0  0  0  0  0  0  0  0  0
   -0.9274  100.1976   79.0303 C   0  0  2  0  0  0  0  0  0  0  0  0
    7.5438  101.3973   82.4435 C   0  0  2  0  0  0  0  0  0  0  0  0
    5.0322  104.1476   87.1889 C   0  0  0  0  0  0  0  0  0  0  0  0
   -4.6105  103.8156   79.5876 N   0  0  0  0  0  0  0  0  0  0  0  0
    2.4593  100.2583   83.1207 O   0  0  0  0  0  0  0  0  0  0  0  0
   -1.5468   99.4052   78.0462 O   0  0  0  0  0  0  0  0  0  0  0  0
    8.7110  102.1240   82.1578 O   0  0  0  0  0  0  0  0  0  0  0  0
   -3.6961  103.7032   80.5870 C   0  0  0  0  0  0  0  0  0  0  0  0
   -1.2313   99.6642   80.4406 C   0  0  2  0  0  0  0  0  0  0  0  0
    6.3373  102.1541   81.8591 C   0  0  2  0  0  0  0  0  0  0  0  0
    3.9413  103.1689   87.5369 C   0  0  0  0  0  0  0  0  0  0  0  0
   -2.3164  100.4012   80.9739 O   0  0  0  0  0  0  0  0  0  0  0  0
    5.7139  102.8828   82.9033 O   0  0  0  0  0  0  0  0  0  0  0  0
   -3.5340  104.6603   81.5285 C   0  0  0  0  0  0  0  0  0  0  0  0
   -0.0212   99.7860   81.3888 C   0  0  0  0  0  0  0  0  0  0  0  0
    5.3167  101.1885   81.2498 C   0  0  0  0  0  0  0  0  0  0  0  0
    3.7324  102.0888   86.5251 C   0  0  0  0  0  0  0  0  0  0  0  0
    0.6048  101.0186   81.1345 O   0  0  0  0  0  0  0  0  0  0  0  0
    5.0386  100.2417   82.2440 O   0  0  0  0  0  0  0  0  0  0  0  0
   -4.3160  105.8095   81.4930 C   0  0  0  0  0  0  0  0  0  0  0  0
    4.5372  101.9350   85.4725 C   0  0  0  0  0  0  0  0  0  0  0  0
   -4.1691  106.8379   82.4638 N   0  0  0  0  0  0  0  0  0  0  0  0
    5.1589  105.4019   87.9694 C   0  0  0  0  0  0  0  0  0  0  0  0
   -2.5703  104.3071   82.4019 N   0  0  0  0  0  0  0  0  0  0  0  0
    4.4597  105.5642   89.2020 N   0  0  0  0  0  0  0  0  0  0  0  0
    5.8703  106.3563   87.5347 O   0  0  0  0  0  0  0  0  0  0  0  0
   -2.1667  103.0947   81.9399 C   0  0  0  0  0  0  0  0  0  0  0  0
   -2.8400  102.6938   80.8300 N   0  0  0  0  0  0  0  0  0  0  0  0
   -3.5824  101.1779   79.5556 H   0  0  0  0  0  0  0  0  0  0  0  0
    7.2571  103.5386   84.0714 H   0  0  0  0  0  0  0  0  0  0  0  0
    1.2497  102.3409   84.3766 H   0  0  0  0  0  0  0  0  0  0  0  0
    3.7516   98.8918   79.9924 H   0  0  0  0  0  0  0  0  0  0  0  0
   -6.1227  105.0615   78.7612 H   0  0  0  0  0  0  0  0  0  0  0  0
   -0.7422  102.3166   79.4495 H   0  0  0  0  0  0  0  0  0  0  0  0
    6.6152  100.5256   84.1864 H   0  0  0  0  0  0  0  0  0  0  0  0
    6.6278  104.6435   85.9196 H   0  0  0  0  0  0  0  0  0  0  0  0
   -1.1966  102.0330   77.2137 H   0  0  0  0  0  0  0  0  0  0  0  0
    8.5708  102.3022   85.0204 H   0  0  0  0  0  0  0  0  0  0  0  0
    0.1622  100.2271   78.8085 H   0  0  0  0  0  0  0  0  0  0  0  0
    7.6313  100.3560   82.0499 H   0  0  0  0  0  0  0  0  0  0  0  0
   -2.5144   99.6284   78.0242 H   0  0  0  0  0  0  0  0  0  0  0  0
    9.4738  101.4987   82.2715 H   0  0  0  0  0  0  0  0  0  0  0  0
   -1.5219   98.5914   80.3929 H   0  0  0  0  0  0  0  0  0  0  0  0
    6.6625  102.8640   81.0663 H   0  0  0  0  0  0  0  0  0  0  0  0
    4.1853  102.6881   88.5077 H   0  0  0  0  0  0  0  0  0  0  0  0
    2.9818  103.7181   87.6465 H   0  0  0  0  0  0  0  0  0  0  0  0
   -0.3788   99.6973   82.4406 H   0  0  0  0  0  0  0  0  0  0  0  0
    0.6910   98.9593   81.1787 H   0  0  0  0  0  0  0  0  0  0  0  0
    5.7579  100.6838   80.3625 H   0  0  0  0  0  0  0  0  0  0  0  0
    4.4297  101.7677   80.9354 H   0  0  0  0  0  0  0  0  0  0  0  0
    2.9001  101.4086   86.6565 H   0  0  0  0  0  0  0  0  0  0  0  0
    4.3184  101.1495   84.7614 H   0  0  0  0  0  0  0  0  0  0  0  0
   -3.3823  106.8032   83.1493 H   0  0  0  0  0  0  0  0  0  0  0  0
   -4.8390  107.6378   82.5076 H   0  0  0  0  0  0  0  0  0  0  0  0
    3.9052  104.7941   89.6350 H   0  0  0  0  0  0  0  0  0  0  0  0
    4.5273  106.4681   89.7204 H   0  0  0  0  0  0  0  0  0  0  0  0
   -1.3924  102.5154   82.4100 H   0  0  0  0  0  0  0  0  0  0  0  0
  4  6  1  0
  1  7  1  1
  2  8  1  6
  9  5  2  0
 10  3  1  0
 11  4  1  0
 12  6  1  0
 13  1  2  0
 10 14  1  0
 11 15  1  0
 16  2  2  0
 17 10  1  0
 18 11  1  0
 19 12  2  0
 20  9  1  0
 21  2  1  0
 21  1  1  0
 17 22  1  0
 18 23  1  0
 24 20  2  0
 25 17  1  0
 26 18  1  0
 27 19  1  0
 28 25  1  0
 28  3  1  0
 29 26  1  0
 29  4  1  0
 30 24  1  0
 25 31  1  0
 26 32  1  0
 33 27  1  0
 34 31  1  0
 34  1  1  0
 35  2  1  0
 35 32  1  0
 36 30  2  0
 36  5  1  0
 37 33  2  0
 37  6  1  0
 38 36  1  0
 39 19  1  0
 40 30  1  0
 41 39  1  0
 42 39  2  0
 43 40  2  0
  3 44  1  0
 44 43  1  0
 44 24  1  0
  3 45  1  6
  4 46  1  1
  7 47  1  0
  8 48  1  0
  9 49  1  0
 10 50  1  1
 11 51  1  6
 12 52  1  0
 14 53  1  0
 15 54  1  0
 17 55  1  6
 18 56  1  6
 22 57  1  0
 23 58  1  0
 25 59  1  6
 26 60  1  6
 27 61  1  0
 27 62  1  0
 31 63  1  0
 31 64  1  0
 32 65  1  0
 32 66  1  0
 33 67  1  0
 37 68  1  0
 38 69  1  0
 38 70  1  0
 41 71  1  0
 41 72  1  0
 43 73  1  0
M  END
