
     RDKit          3D

 73 77  0  0  0  0  0  0  0  0999 V2000
    1.0632  100.7068   82.4427 P   0  0  1  0  0  0  0  0  0  0  0  0
    3.1607   98.8166   82.3259 P   0  0  2  0  0  0  0  0  0  0  0  0
   -2.8463  100.5292   79.6189 C   0  0  1  0  0  0  0  0  0  0  0  0
    6.0614  102.1372   84.3993 C   0  0  1  0  0  0  0  0  0  0  0  0
   -5.6424  104.9039   79.5530 N   0  0  0  0  0  0  0  0  0  0  0  0
    5.2061  102.2502   85.5924 N   0  0  0  0  0  0  0  0  0  0  0  0
   -0.0346  101.2180   83.5967 O   0  0  0  0  0  0  0  0  0  0  0  0
    2.8078   98.6251   80.6929 O   0  0  0  0  0  0  0  0  0  0  0  0
   -5.7752  103.8013   78.7475 C   0  0  0  0  0  0  0  0  0  0  0  0
   -1.5951  100.5371   78.7493 C   0  0  2  0  0  0  0  0  0  0  0  0
    6.7999  100.8094   84.2918 C   0  0  2  0  0  0  0  0  0  0  0  0
    5.2288  103.4804   86.3289 C   0  0  0  0  0  0  0  0  0  0  0  0
    1.8772  101.9016   82.0079 O   0  0  0  0  0  0  0  0  0  0  0  0
   -1.8974  100.8438   77.4141 O   0  0  0  0  0  0  0  0  0  0  0  0
    7.9653  100.7774   85.0736 O   0  0  0  0  0  0  0  0  0  0  0  0
    3.3579   97.4607   82.9601 O   0  0  0  0  0  0  0  0  0  0  0  0
   -1.0751   99.1232   78.9179 C   0  0  2  0  0  0  0  0  0  0  0  0
    7.1093  100.7854   82.8065 C   0  0  2  0  0  0  0  0  0  0  0  0
    4.3885  103.7047   87.3501 C   0  0  0  0  0  0  0  0  0  0  0  0
   -4.9439  102.7219   78.9039 N   0  0  0  0  0  0  0  0  0  0  0  0
    1.9551   99.5316   83.2579 O   0  0  0  0  0  0  0  0  0  0  0  0
   -1.6047   98.2523   77.9478 O   0  0  0  0  0  0  0  0  0  0  0  0
    8.2876  101.4961   82.5260 O   0  0  0  0  0  0  0  0  0  0  0  0
   -3.9937  102.7793   79.8742 C   0  0  0  0  0  0  0  0  0  0  0  0
   -1.5687   98.7476   80.3254 C   0  0  2  0  0  0  0  0  0  0  0  0
    5.9178  101.5489   82.2003 C   0  0  2  0  0  0  0  0  0  0  0  0
    3.4430  102.6310   87.8219 C   0  0  0  0  0  0  0  0  0  0  0  0
   -2.6777   99.5680   80.6447 O   0  0  0  0  0  0  0  0  0  0  0  0
    5.2910  102.2960   83.2294 O   0  0  0  0  0  0  0  0  0  0  0  0
   -3.8481  103.8559   80.6795 C   0  0  0  0  0  0  0  0  0  0  0  0
   -0.4773   98.9303   81.3996 C   0  0  0  0  0  0  0  0  0  0  0  0
    4.8934  100.5879   81.5902 C   0  0  0  0  0  0  0  0  0  0  0  0
    3.3941  101.4206   86.9464 C   0  0  0  0  0  0  0  0  0  0  0  0
    0.2264  100.1108   81.1042 O   0  0  0  0  0  0  0  0  0  0  0  0
    4.5938   99.6553   82.5916 O   0  0  0  0  0  0  0  0  0  0  0  0
   -4.6854  104.9556   80.5277 C   0  0  0  0  0  0  0  0  0  0  0  0
    4.2194  101.2577   85.9112 C   0  0  0  0  0  0  0  0  0  0  0  0
   -4.5574  106.1059   81.3536 N   0  0  0  0  0  0  0  0  0  0  0  0
    4.3331  105.0476   87.9763 C   0  0  0  0  0  0  0  0  0  0  0  0
   -2.8411  103.6607   81.5537 N   0  0  0  0  0  0  0  0  0  0  0  0
    3.6100  105.2548   89.1881 N   0  0  0  0  0  0  0  0  0  0  0  0
    4.9068  106.0341   87.4251 O   0  0  0  0  0  0  0  0  0  0  0  0
   -2.3944  102.4178   81.2347 C   0  0  0  0  0  0  0  0  0  0  0  0
   -3.0825  101.8481   80.2111 N   0  0  0  0  0  0  0  0  0  0  0  0
   -3.7300  100.2316   79.0107 H   0  0  0  0  0  0  0  0  0  0  0  0
    6.8283  102.9478   84.4075 H   0  0  0  0  0  0  0  0  0  0  0  0
    0.5199  101.5685   84.3391 H   0  0  0  0  0  0  0  0  0  0  0  0
    2.5913   97.6691   80.5645 H   0  0  0  0  0  0  0  0  0  0  0  0
   -6.5400  103.7835   77.9834 H   0  0  0  0  0  0  0  0  0  0  0  0
   -0.8520  101.2677   79.1453 H   0  0  0  0  0  0  0  0  0  0  0  0
    6.1518   99.9434   84.5483 H   0  0  0  0  0  0  0  0  0  0  0  0
    5.9073  104.2655   86.0154 H   0  0  0  0  0  0  0  0  0  0  0  0
   -1.6169  101.7855   77.2724 H   0  0  0  0  0  0  0  0  0  0  0  0
    7.6657  100.7088   86.0174 H   0  0  0  0  0  0  0  0  0  0  0  0
    0.0336   99.0969   78.8310 H   0  0  0  0  0  0  0  0  0  0  0  0
    7.1895   99.7389   82.4254 H   0  0  0  0  0  0  0  0  0  0  0  0
   -1.6700   97.3430   78.3421 H   0  0  0  0  0  0  0  0  0  0  0  0
    9.0420  100.8637   82.6551 H   0  0  0  0  0  0  0  0  0  0  0  0
   -1.8967   97.6849   80.3483 H   0  0  0  0  0  0  0  0  0  0  0  0
    6.2596  102.2464   81.4034 H   0  0  0  0  0  0  0  0  0  0  0  0
    3.7455  102.3069   88.8400 H   0  0  0  0  0  0  0  0  0  0  0  0
    2.4154  103.0498   87.8756 H   0  0  0  0  0  0  0  0  0  0  0  0
   -0.9622   98.9615   82.4025 H   0  0  0  0  0  0  0  0  0  0  0  0
    0.2193   98.0654   81.3621 H   0  0  0  0  0  0  0  0  0  0  0  0
    5.3388  100.0686   80.7135 H   0  0  0  0  0  0  0  0  0  0  0  0
    4.0164  101.1733   81.2596 H   0  0  0  0  0  0  0  0  0  0  0  0
    2.6644  100.6510   87.1653 H   0  0  0  0  0  0  0  0  0  0  0  0
    4.1175  100.3710   85.2998 H   0  0  0  0  0  0  0  0  0  0  0  0
   -5.1967  106.9205   81.2207 H   0  0  0  0  0  0  0  0  0  0  0  0
   -3.8287  106.1553   82.1001 H   0  0  0  0  0  0  0  0  0  0  0  0
    3.1660  104.4713   89.7143 H   0  0  0  0  0  0  0  0  0  0  0  0
    3.5470  106.2140   89.5958 H   0  0  0  0  0  0  0  0  0  0  0  0
   -1.5784  101.9383   81.7451 H   0  0  0  0  0  0  0  0  0  0  0  0
  4  6  1  0
  1  7  1  1
  2  8  1  6
  9  5  2  0
 10  3  1  0
 11  4  1  0
 12  6  1  0
 13  1  2  0
 10 14  1  0
 11 15  1  0
 16  2  2  0
 17 10  1  0
 18 11  1  0
 19 12  2  0
 20  9  1  0
 21  2  1  0
 21  1  1  0
 17 22  1  0
 18 23  1  0
 24 20  2  0
 25 17  1  0
 26 18  1  0
 27 19  1  0
 28 25  1  0
 28  3  1  0
 29 26  1  0
 29  4  1  0
 30 24  1  0
 25 31  1  0
 26 32  1  0
 33 27  1  0
 34 31  1  0
 34  1  1  0
 35  2  1  0
 35 32  1  0
 36 30  2  0
 36  5  1  0
 37 33  2  0
 37  6  1  0
 38 36  1  0
 39 19  1  0
 40 30  1  0
 41 39  1  0
 42 39  2  0
 43 40  2  0
  3 44  1  0
 44 43  1  0
 44 24  1  0
  3 45  1  6
  4 46  1  1
  7 47  1  0
  8 48  1  0
  9 49  1  0
 10 50  1  1
 11 51  1  1
 12 52  1  0
 14 53  1  0
 15 54  1  0
 17 55  1  1
 18 56  1  6
 22 57  1  0
 23 58  1  0
 25 59  1  6
 26 60  1  6
 27 61  1  0
 27 62  1  0
 31 63  1  0
 31 64  1  0
 32 65  1  0
 32 66  1  0
 33 67  1  0
 37 68  1  0
 38 69  1  0
 38 70  1  0
 41 71  1  0
 41 72  1  0
 43 73  1  0
M  END
