
     RDKit          3D

 88 93  0  0  0  0  0  0  0  0999 V2000
   14.1782   21.9092    7.1477 P   0  0  2  0  0  0  0  0  0  0  0  0
   11.8298   23.4897    6.8761 P   0  0  1  0  0  0  0  0  0  0  0  0
   14.9259   22.7548    6.1394 O   0  0  0  0  0  0  0  0  0  0  0  0
   14.5476   20.2845    6.9261 O   0  0  0  0  0  0  0  0  0  0  0  0
   12.4990   21.9445    6.9483 O   0  0  0  0  0  0  0  0  0  0  0  0
   13.9664   21.5885    9.6663 C   0  0  0  0  0  0  0  0  0  0  0  0
   14.6500   22.3579    8.7093 O   0  0  0  0  0  0  0  0  0  0  0  0
   14.2069   22.2376   11.0337 C   0  0  1  0  0  0  0  0  0  0  0  0
   13.8225   23.5905   10.9631 O   0  0  0  0  0  0  0  0  0  0  0  0
   13.4121   21.4882   12.1215 C   0  0  1  0  0  0  0  0  0  0  0  0
   14.0294   20.2405   12.3412 O   0  0  0  0  0  0  0  0  0  0  0  0
   13.3604   22.2574   13.4557 C   0  0  1  0  0  0  0  0  0  0  0  0
   12.4759   23.3528   13.3867 O   0  0  0  0  0  0  0  0  0  0  0  0
   12.9708   21.2920   14.6051 C   0  0  0  0  0  0  0  0  0  0  0  0
    9.4802   24.5546    1.5331 C   0  0  1  0  0  0  0  0  0  0  0  0
   15.0439   22.5351   16.1440 N   0  0  0  0  0  0  0  0  0  0  0  0
    4.6629   22.8914    0.8427 N   0  0  0  0  0  0  0  0  0  0  0  0
   10.3645   23.2956    7.1917 O   0  0  0  0  0  0  0  0  0  0  0  0
   16.0371   23.2628   16.7013 C   0  0  0  0  0  0  0  0  0  0  0  0
    5.1886   23.5722    1.9082 C   0  0  0  0  0  0  0  0  0  0  0  0
    8.7529   25.2570    2.6747 C   0  0  2  0  0  0  0  0  0  0  0  0
   17.2135   23.1294   16.2751 O   0  0  0  0  0  0  0  0  0  0  0  0
   12.5037   24.5964    7.9483 O   0  0  0  0  0  0  0  0  0  0  0  0
    8.1923   26.4813    2.2683 O   0  0  0  0  0  0  0  0  0  0  0  0
    9.8716   25.4526    3.6865 C   0  0  2  0  0  0  0  0  0  0  0  0
   15.7728   24.1258   17.7178 N   0  0  0  0  0  0  0  0  0  0  0  0
    6.5180   23.8873    1.9379 N   0  0  0  0  0  0  0  0  0  0  0  0
   10.4111   26.7519    3.6185 O   0  0  0  0  0  0  0  0  0  0  0  0
   14.5122   24.2754   18.2002 C   0  0  0  0  0  0  0  0  0  0  0  0
    7.2918   23.5084    0.8889 C   0  0  0  0  0  0  0  0  0  0  0  0
   10.9316   24.4230    3.2508 C   0  0  2  0  0  0  0  0  0  0  0  0
   13.4631   23.5451   17.6211 C   0  0  0  0  0  0  0  0  0  0  0  0
   14.2955   25.0775   19.1518 O   0  0  0  0  0  0  0  0  0  0  0  0
   10.4714   23.7452    2.1089 O   0  0  0  0  0  0  0  0  0  0  0  0
    6.7951   22.8494   -0.1796 C   0  0  0  0  0  0  0  0  0  0  0  0
   11.2517   23.4257    4.3691 C   0  0  0  0  0  0  0  0  0  0  0  0
   11.0457   23.1729   17.3135 C   0  0  0  0  0  0  0  0  0  0  0  0
   12.1258   23.6752   18.0918 N   0  0  0  0  0  0  0  0  0  0  0  0
   12.0084   24.1313    5.3239 O   0  0  0  0  0  0  0  0  0  0  0  0
    9.7440   23.5494   17.6410 C   0  0  0  0  0  0  0  0  0  0  0  0
    5.4429   22.5173   -0.2153 C   0  0  0  0  0  0  0  0  0  0  0  0
    4.8778   21.8008   -1.3060 N   0  0  0  0  0  0  0  0  0  0  0  0
    8.6640   23.1539   16.8474 C   0  0  0  0  0  0  0  0  0  0  0  0
    7.2771   23.6056   17.2185 C   0  0  0  0  0  0  0  0  0  0  0  0
    7.7680   22.6265   -1.0881 N   0  0  0  0  0  0  0  0  0  0  0  0
    8.8957   22.3385   15.7214 C   0  0  0  0  0  0  0  0  0  0  0  0
    8.8670   23.1810   -0.5043 C   0  0  0  0  0  0  0  0  0  0  0  0
    7.7691   21.9055   14.8188 C   0  0  0  0  0  0  0  0  0  0  0  0
   10.2032   21.9708   15.3932 C   0  0  0  0  0  0  0  0  0  0  0  0
   11.2982   22.3696   16.1855 C   0  0  0  0  0  0  0  0  0  0  0  0
    8.6071   23.7085    0.7214 N   0  0  0  0  0  0  0  0  0  0  0  0
   13.7469   22.6861   16.5427 C   0  0  0  0  0  0  0  0  0  0  0  0
   12.6654   22.0293   15.8393 N   0  0  0  0  0  0  0  0  0  0  0  0
   13.8145   19.7846    7.3662 H   0  0  0  0  0  0  0  0  0  0  0  0
   14.3660   20.5505    9.6685 H   0  0  0  0  0  0  0  0  0  0  0  0
   12.8696   21.5729    9.4690 H   0  0  0  0  0  0  0  0  0  0  0  0
   15.2978   22.1595   11.2625 H   0  0  0  0  0  0  0  0  0  0  0  0
   14.4460   24.1041   11.5403 H   0  0  0  0  0  0  0  0  0  0  0  0
   12.3608   21.3389   11.7726 H   0  0  0  0  0  0  0  0  0  0  0  0
   13.5334   19.5647   11.8091 H   0  0  0  0  0  0  0  0  0  0  0  0
   14.3713   22.6676   13.6442 H   0  0  0  0  0  0  0  0  0  0  0  0
   11.5794   23.0043   13.1444 H   0  0  0  0  0  0  0  0  0  0  0  0
   13.7889   20.5702   14.8038 H   0  0  0  0  0  0  0  0  0  0  0  0
   12.1676   20.5990   14.3053 H   0  0  0  0  0  0  0  0  0  0  0  0
    9.9745   25.3171    0.8863 H   0  0  0  0  0  0  0  0  0  0  0  0
   15.3349   21.8495   15.4180 H   0  0  0  0  0  0  0  0  0  0  0  0
    4.5493   23.8594    2.7315 H   0  0  0  0  0  0  0  0  0  0  0  0
    7.9709   24.5954    3.1150 H   0  0  0  0  0  0  0  0  0  0  0  0
   12.3412   24.2105    8.8459 H   0  0  0  0  0  0  0  0  0  0  0  0
    7.4048   26.2543    1.7082 H   0  0  0  0  0  0  0  0  0  0  0  0
    9.4751   25.2626    4.7124 H   0  0  0  0  0  0  0  0  0  0  0  0
   16.5546   24.6770   18.1407 H   0  0  0  0  0  0  0  0  0  0  0  0
    9.6505   27.3786    3.7397 H   0  0  0  0  0  0  0  0  0  0  0  0
   11.8776   24.9411    2.9689 H   0  0  0  0  0  0  0  0  0  0  0  0
   10.2995   22.9994    4.7586 H   0  0  0  0  0  0  0  0  0  0  0  0
   11.8710   22.5975    3.9616 H   0  0  0  0  0  0  0  0  0  0  0  0
   11.9269   24.2365   18.9512 H   0  0  0  0  0  0  0  0  0  0  0  0
    9.5759   24.1778   18.5078 H   0  0  0  0  0  0  0  0  0  0  0  0
    5.4650   21.5056   -2.1175 H   0  0  0  0  0  0  0  0  0  0  0  0
    3.8617   21.5607   -1.3063 H   0  0  0  0  0  0  0  0  0  0  0  0
    7.3350   24.3543   18.0360 H   0  0  0  0  0  0  0  0  0  0  0  0
    6.6707   22.7389   17.5553 H   0  0  0  0  0  0  0  0  0  0  0  0
    6.7511   24.0708   16.3577 H   0  0  0  0  0  0  0  0  0  0  0  0
    9.8357   23.2248   -0.9853 H   0  0  0  0  0  0  0  0  0  0  0  0
    6.9291   21.4987   15.4197 H   0  0  0  0  0  0  0  0  0  0  0  0
    7.4108   22.7751   14.2294 H   0  0  0  0  0  0  0  0  0  0  0  0
    8.0857   21.1085   14.1127 H   0  0  0  0  0  0  0  0  0  0  0  0
   10.3197   21.4067   14.4868 H   0  0  0  0  0  0  0  0  0  0  0  0
  3  1  2  0
  1  4  1  6
  2  5  1  6
  5  1  1  0
  7  6  1  0
  7  1  1  0
  8  6  1  0
  8  9  1  0
 10  8  1  0
 10 11  1  0
 12 10  1  0
 12 13  1  0
 14 12  1  0
 18  2  2  0
 19 16  1  0
 20 17  2  0
 21 15  1  0
 22 19  2  0
 23  2  1  0
 21 24  1  0
 25 21  1  0
 26 19  1  0
 27 20  1  0
 25 28  1  0
 29 26  1  0
 30 27  2  0
 31 25  1  0
 32 29  1  0
 33 29  2  0
 34 15  1  0
 34 31  1  0
 35 30  1  0
 31 36  1  0
 38 37  1  0
 38 32  1  0
 39 36  1  0
 39  2  1  0
 40 37  2  0
 41 35  2  0
 41 17  1  0
 42 41  1  0
 43 40  1  0
 44 43  1  0
 45 35  1  0
 46 43  2  0
 47 45  2  0
 48 46  1  0
 49 46  1  0
 50 49  2  0
 50 37  1  0
 51 47  1  0
 51 30  1  0
 15 51  1  0
 52 16  1  0
 52 32  2  0
 53 14  1  0
 53 52  1  0
 53 50  1  0
  4 54  1  0
  6 55  1  0
  6 56  1  0
  8 57  1  1
  9 58  1  0
 10 59  1  6
 11 60  1  0
 12 61  1  1
 13 62  1  0
 14 63  1  0
 14 64  1  0
 15 65  1  6
 16 66  1  0
 20 67  1  0
 21 68  1  1
 23 69  1  0
 24 70  1  0
 25 71  1  1
 26 72  1  0
 28 73  1  0
 31 74  1  6
 36 75  1  0
 36 76  1  0
 38 77  1  0
 40 78  1  0
 42 79  1  0
 42 80  1  0
 44 81  1  0
 44 82  1  0
 44 83  1  0
 47 84  1  0
 48 85  1  0
 48 86  1  0
 48 87  1  0
 49 88  1  0
M  END
