
     RDKit          3D

 88 93  0  0  0  0  0  0  0  0999 V2000
   14.5468   22.0707    6.6360 P   0  0  2  0  0  0  0  0  0  0  0  0
   12.1608   23.6063    6.4478 P   0  0  1  0  0  0  0  0  0  0  0  0
   15.2548   22.9527    5.6301 O   0  0  0  0  0  0  0  0  0  0  0  0
   14.9450   20.4591    6.3721 O   0  0  0  0  0  0  0  0  0  0  0  0
   12.8634   22.0745    6.4729 O   0  0  0  0  0  0  0  0  0  0  0  0
   14.3964   21.6934    9.1511 C   0  0  0  0  0  0  0  0  0  0  0  0
   15.0429   22.4968    8.1963 O   0  0  0  0  0  0  0  0  0  0  0  0
   14.6528   22.3189   10.5265 C   0  0  1  0  0  0  0  0  0  0  0  0
   14.2390   23.6645   10.4928 O   0  0  0  0  0  0  0  0  0  0  0  0
   13.8975   21.5304   11.6148 C   0  0  1  0  0  0  0  0  0  0  0  0
   14.5738   20.3128   11.8300 O   0  0  0  0  0  0  0  0  0  0  0  0
   13.8133   22.2934   12.9509 C   0  0  1  0  0  0  0  0  0  0  0  0
   12.8777   23.3459   12.8868 O   0  0  0  0  0  0  0  0  0  0  0  0
   13.4731   21.3082   14.0992 C   0  0  0  0  0  0  0  0  0  0  0  0
    9.6745   24.7319    1.1796 C   0  0  1  0  0  0  0  0  0  0  0  0
   15.4895   22.6447   15.6352 N   0  0  0  0  0  0  0  0  0  0  0  0
    5.1271   22.3398    0.9601 N   0  0  0  0  0  0  0  0  0  0  0  0
   10.7070   23.3747    6.7902 O   0  0  0  0  0  0  0  0  0  0  0  0
   16.4488   23.4174   16.1914 C   0  0  0  0  0  0  0  0  0  0  0  0
    5.7372   22.9205    2.0398 C   0  0  0  0  0  0  0  0  0  0  0  0
    8.9576   25.3948    2.3510 C   0  0  2  0  0  0  0  0  0  0  0  0
   17.6289   23.3407   15.7616 O   0  0  0  0  0  0  0  0  0  0  0  0
   12.8346   24.7046    7.5287 O   0  0  0  0  0  0  0  0  0  0  0  0
    8.3630   26.6152    1.9827 O   0  0  0  0  0  0  0  0  0  0  0  0
   10.0937   25.5931    3.3428 C   0  0  2  0  0  0  0  0  0  0  0  0
   16.1469   24.2647   17.2106 N   0  0  0  0  0  0  0  0  0  0  0  0
    6.9831   23.4679    1.9166 N   0  0  0  0  0  0  0  0  0  0  0  0
   10.6045   26.9047    3.2909 O   0  0  0  0  0  0  0  0  0  0  0  0
   14.8820   24.3535   17.6968 C   0  0  0  0  0  0  0  0  0  0  0  0
    7.5897   23.4185    0.7031 C   0  0  0  0  0  0  0  0  0  0  0  0
   11.1651   24.5954    2.8629 C   0  0  2  0  0  0  0  0  0  0  0  0
   13.8669   23.5756   17.1190 C   0  0  0  0  0  0  0  0  0  0  0  0
   14.6303   25.1423   18.6508 O   0  0  0  0  0  0  0  0  0  0  0  0
   10.6945   23.9318    1.7170 O   0  0  0  0  0  0  0  0  0  0  0  0
    7.0037   22.8647   -0.3799 C   0  0  0  0  0  0  0  0  0  0  0  0
   11.5300   23.5822    3.9528 C   0  0  0  0  0  0  0  0  0  0  0  0
   11.4690   23.0901   16.8171 C   0  0  0  0  0  0  0  0  0  0  0  0
   12.5263   23.6413   17.5936 N   0  0  0  0  0  0  0  0  0  0  0  0
   12.2924   24.2837    4.9061 O   0  0  0  0  0  0  0  0  0  0  0  0
   10.1518   23.4039   17.1491 C   0  0  0  0  0  0  0  0  0  0  0  0
    5.7370   22.2976   -0.2621 C   0  0  0  0  0  0  0  0  0  0  0  0
    5.0894   21.6792   -1.3668 N   0  0  0  0  0  0  0  0  0  0  0  0
    9.0895   22.9594   16.3576 C   0  0  0  0  0  0  0  0  0  0  0  0
    7.6839   23.3442   16.7336 C   0  0  0  0  0  0  0  0  0  0  0  0
    7.8064   22.9801   -1.4588 N   0  0  0  0  0  0  0  0  0  0  0  0
    9.3563   22.1583   15.2291 C   0  0  0  0  0  0  0  0  0  0  0  0
    8.8989   23.6248   -0.9621 C   0  0  0  0  0  0  0  0  0  0  0  0
    8.2488   21.6744   14.3287 C   0  0  0  0  0  0  0  0  0  0  0  0
   10.6788   21.8536   14.8964 C   0  0  0  0  0  0  0  0  0  0  0  0
   11.7560   22.3021   15.6866 C   0  0  0  0  0  0  0  0  0  0  0  0
    8.8017   23.8845    0.3689 N   0  0  0  0  0  0  0  0  0  0  0  0
   14.1879   22.7333   16.0378 C   0  0  0  0  0  0  0  0  0  0  0  0
   13.1367   22.0276   15.3358 N   0  0  0  0  0  0  0  0  0  0  0  0
   14.2322   19.9348    6.8170 H   0  0  0  0  0  0  0  0  0  0  0  0
   14.8173   20.6642    9.1228 H   0  0  0  0  0  0  0  0  0  0  0  0
   13.2961   21.6586    8.9768 H   0  0  0  0  0  0  0  0  0  0  0  0
   15.7499   22.2592   10.7304 H   0  0  0  0  0  0  0  0  0  0  0  0
   14.8641   24.1792   11.0674 H   0  0  0  0  0  0  0  0  0  0  0  0
   12.8534   21.3323   11.2685 H   0  0  0  0  0  0  0  0  0  0  0  0
   14.1088   19.6155   11.2977 H   0  0  0  0  0  0  0  0  0  0  0  0
   14.8042   22.7506   13.1376 H   0  0  0  0  0  0  0  0  0  0  0  0
   11.9980   22.9559   12.6462 H   0  0  0  0  0  0  0  0  0  0  0  0
   14.3250   20.6255   14.2940 H   0  0  0  0  0  0  0  0  0  0  0  0
   12.7028   20.5786   13.8000 H   0  0  0  0  0  0  0  0  0  0  0  0
   10.1388   25.5179    0.5388 H   0  0  0  0  0  0  0  0  0  0  0  0
   15.8105   21.9752   14.9068 H   0  0  0  0  0  0  0  0  0  0  0  0
    5.2317   22.9434    2.9953 H   0  0  0  0  0  0  0  0  0  0  0  0
    8.1992   24.7078    2.7937 H   0  0  0  0  0  0  0  0  0  0  0  0
   12.3521   25.5532    7.3613 H   0  0  0  0  0  0  0  0  0  0  0  0
    7.5686   26.3831    1.4347 H   0  0  0  0  0  0  0  0  0  0  0  0
    9.7236   25.3734    4.3726 H   0  0  0  0  0  0  0  0  0  0  0  0
   16.9029   24.8514   17.6325 H   0  0  0  0  0  0  0  0  0  0  0  0
   10.7187   27.1990    4.2322 H   0  0  0  0  0  0  0  0  0  0  0  0
   12.0939   25.1392    2.5721 H   0  0  0  0  0  0  0  0  0  0  0  0
   10.5955   23.1278    4.3533 H   0  0  0  0  0  0  0  0  0  0  0  0
   12.1575   22.7759    3.5148 H   0  0  0  0  0  0  0  0  0  0  0  0
   12.3035   24.1906   18.4548 H   0  0  0  0  0  0  0  0  0  0  0  0
    9.9567   24.0217   18.0178 H   0  0  0  0  0  0  0  0  0  0  0  0
    5.5478   21.6369   -2.3042 H   0  0  0  0  0  0  0  0  0  0  0  0
    4.1412   21.2579   -1.2509 H   0  0  0  0  0  0  0  0  0  0  0  0
    7.5453   24.4363   16.5909 H   0  0  0  0  0  0  0  0  0  0  0  0
    7.4877   23.0837   17.7948 H   0  0  0  0  0  0  0  0  0  0  0  0
    6.9312   22.8141   16.1117 H   0  0  0  0  0  0  0  0  0  0  0  0
    9.7387   23.9270   -1.5745 H   0  0  0  0  0  0  0  0  0  0  0  0
    7.4308   21.2271   14.9309 H   0  0  0  0  0  0  0  0  0  0  0  0
    7.8481   22.5274   13.7422 H   0  0  0  0  0  0  0  0  0  0  0  0
    8.6008   20.8948   13.6198 H   0  0  0  0  0  0  0  0  0  0  0  0
   10.8192   21.2976   13.9884 H   0  0  0  0  0  0  0  0  0  0  0  0
  3  1  2  0
  1  4  1  6
  2  5  1  6
  5  1  1  0
  7  6  1  0
  7  1  1  0
  8  6  1  0
  8  9  1  0
 10  8  1  0
 10 11  1  0
 12 10  1  0
 12 13  1  0
 14 12  1  0
 18  2  2  0
 19 16  1  0
 20 17  2  0
 21 15  1  0
 22 19  2  0
 23  2  1  0
 21 24  1  0
 25 21  1  0
 26 19  1  0
 27 20  1  0
 25 28  1  0
 29 26  1  0
 30 27  2  0
 31 25  1  0
 32 29  1  0
 33 29  2  0
 34 15  1  0
 34 31  1  0
 35 30  1  0
 31 36  1  0
 38 37  1  0
 38 32  1  0
 39 36  1  0
 39  2  1  0
 40 37  2  0
 41 35  2  0
 41 17  1  0
 42 41  1  0
 43 40  1  0
 44 43  1  0
 45 35  1  0
 46 43  2  0
 47 45  2  0
 48 46  1  0
 49 46  1  0
 50 49  2  0
 50 37  1  0
 51 47  1  0
 51 30  1  0
 15 51  1  0
 52 16  1  0
 52 32  2  0
 53 14  1  0
 53 52  1  0
 53 50  1  0
  4 54  1  0
  6 55  1  0
  6 56  1  0
  8 57  1  1
  9 58  1  0
 10 59  1  6
 11 60  1  0
 12 61  1  1
 13 62  1  0
 14 63  1  0
 14 64  1  0
 15 65  1  6
 16 66  1  0
 20 67  1  0
 21 68  1  1
 23 69  1  0
 24 70  1  0
 25 71  1  1
 26 72  1  0
 28 73  1  0
 31 74  1  6
 36 75  1  0
 36 76  1  0
 38 77  1  0
 40 78  1  0
 42 79  1  0
 42 80  1  0
 44 81  1  0
 44 82  1  0
 44 83  1  0
 47 84  1  0
 48 85  1  0
 48 86  1  0
 48 87  1  0
 49 88  1  0
M  END
