
     RDKit          3D

114116  0  0  0  0  0  0  0  0999 V2000
  -14.3864   -1.1994   29.9650 C   0  0  0  0  0  0  0  0  0  0  0  0
  -21.5733   -4.8086   25.1542 N   0  0  0  0  0  0  0  0  0  0  0  0
  -13.2716   -1.7130   29.6644 O   0  0  0  0  0  0  0  0  0  0  0  0
  -15.4545   -1.9679   30.6842 C   0  0  1  0  0  0  0  0  0  0  0  0
  -14.6737    0.1264   29.6645 O   0  0  0  0  0  0  0  0  0  0  0  0
  -15.9831   -3.2156   29.9287 C   0  0  1  0  0  0  0  0  0  0  0  0
  -17.1949   -3.5957   30.5798 O   0  0  0  0  0  0  0  0  0  0  0  0
  -16.2473   -2.9287   28.4063 C   0  0  1  0  0  0  0  0  0  0  0  0
  -18.0542   -5.7589   30.6677 O   0  0  0  0  0  0  0  0  0  0  0  0
  -16.0675   -4.2239   27.5361 C   0  0  2  0  0  0  0  0  0  0  0  0
  -19.2587   -3.0060   32.8038 O   0  0  0  0  0  0  0  0  0  0  0  0
  -14.6177   -4.3641   26.9605 C   0  0  1  0  0  0  0  0  0  0  0  0
  -21.1950   -4.9166   32.3411 O   0  0  0  0  0  0  0  0  0  0  0  0
  -14.4558   -3.3483   25.7643 C   0  0  0  0  0  0  0  0  0  0  0  0
  -16.9400   -4.2126   26.4203 O   0  0  0  0  0  0  0  0  0  0  0  0
  -13.0420   -2.7905   25.4841 C   0  0  2  0  0  0  0  0  0  0  0  0
  -19.4817   -3.2207   26.2438 O   0  0  0  0  0  0  0  0  0  0  0  0
  -13.1229   -1.4697   24.7120 C   0  0  0  0  0  0  0  0  0  0  0  0
  -17.6891   -6.3821   25.9813 O   0  0  0  0  0  0  0  0  0  0  0  0
  -13.6770   -0.1840   25.3198 C   0  0  1  0  0  0  0  0  0  0  0  0
  -13.6857   -4.1231   27.9951 O   0  0  0  0  0  0  0  0  0  0  0  0
  -13.3288   -0.0750   26.8235 C   0  0  2  0  0  0  0  0  0  0  0  0
  -12.7801   -1.4528   23.5402 O   0  0  0  0  0  0  0  0  0  0  0  0
  -14.0059    1.1172   27.5595 C   0  0  2  0  0  0  0  0  0  0  0  0
  -11.9269   -0.0757   26.9914 O   0  0  0  0  0  0  0  0  0  0  0  0
  -13.7443    1.0266   29.0800 C   0  0  1  0  0  0  0  0  0  0  0  0
  -17.1537   -4.8370   31.2684 C   0  0  2  0  0  0  0  0  0  0  0  0
  -17.4554   -4.6437   32.7716 C   0  0  0  0  0  0  0  0  0  0  0  0
  -18.9492   -4.3568   33.0700 C   0  0  2  0  0  0  0  0  0  0  0  0
  -19.8476   -5.3147   32.2466 C   0  0  2  0  0  0  0  0  0  0  0  0
  -19.4126   -5.3559   30.7693 C   0  0  2  0  0  0  0  0  0  0  0  0
  -19.2210   -4.5851   34.5674 C   0  0  0  0  0  0  0  0  0  0  0  0
  -20.2714   -6.3692   30.0014 C   0  0  0  0  0  0  0  0  0  0  0  0
  -18.0188   -5.1140   26.5364 C   0  0  2  0  0  0  0  0  0  0  0  0
  -19.1715   -4.4969   25.7419 C   0  0  1  0  0  0  0  0  0  0  0  0
  -20.3992   -5.4062   25.8467 C   0  0  2  0  0  0  0  0  0  0  0  0
  -20.0208   -6.8377   25.3958 C   0  0  0  0  0  0  0  0  0  0  0  0
  -18.7576   -7.3024   26.1590 C   0  0  1  0  0  0  0  0  0  0  0  0
  -18.3036   -8.6735   25.6619 C   0  0  0  0  0  0  0  0  0  0  0  0
  -21.4382   -4.6447   23.6945 C   0  0  0  0  0  0  0  0  0  0  0  0
  -22.8156   -5.5262   25.4752 C   0  0  0  0  0  0  0  0  0  0  0  0
  -14.9614   -2.3108   32.0913 C   0  0  0  0  0  0  0  0  0  0  0  0
  -17.5885   -2.2000   28.1821 C   0  0  0  0  0  0  0  0  0  0  0  0
  -14.4500   -5.8188   26.4567 C   0  0  0  0  0  0  0  0  0  0  0  0
  -12.1865   -3.8133   24.7226 C   0  0  0  0  0  0  0  0  0  0  0  0
  -13.1912    1.0617   24.5455 C   0  0  0  0  0  0  0  0  0  0  0  0
  -15.5240    1.1671   27.2669 C   0  0  0  0  0  0  0  0  0  0  0  0
  -13.8819    2.3938   29.7650 C   0  0  0  0  0  0  0  0  0  0  0  0
  -13.8230    2.2645   31.2846 C   0  0  0  0  0  0  0  0  0  0  0  0
  -16.3166   -1.2761   30.8182 H   0  0  0  0  0  0  0  0  0  0  0  0
  -15.1835   -3.9844   30.0277 H   0  0  0  0  0  0  0  0  0  0  0  0
  -15.4999   -2.2079   28.0470 H   0  0  0  0  0  0  0  0  0  0  0  0
  -16.2510   -5.1023   28.1915 H   0  0  0  0  0  0  0  0  0  0  0  0
  -19.1407   -2.8265   31.8390 H   0  0  0  0  0  0  0  0  0  0  0  0
  -21.6030   -5.4293   33.0868 H   0  0  0  0  0  0  0  0  0  0  0  0
  -14.8569   -3.7995   24.8292 H   0  0  0  0  0  0  0  0  0  0  0  0
  -15.1231   -2.4794   25.9284 H   0  0  0  0  0  0  0  0  0  0  0  0
  -12.5055   -2.5916   26.4313 H   0  0  0  0  0  0  0  0  0  0  0  0
  -18.8762   -2.5746   25.7948 H   0  0  0  0  0  0  0  0  0  0  0  0
  -14.7767   -0.2477   25.1916 H   0  0  0  0  0  0  0  0  0  0  0  0
  -12.7967   -4.4625   27.7140 H   0  0  0  0  0  0  0  0  0  0  0  0
  -13.7243   -0.9812   27.3095 H   0  0  0  0  0  0  0  0  0  0  0  0
  -13.5550    2.0653   27.1945 H   0  0  0  0  0  0  0  0  0  0  0  0
  -11.5155   -0.4265   26.1598 H   0  0  0  0  0  0  0  0  0  0  0  0
  -12.7009    0.6892   29.2738 H   0  0  0  0  0  0  0  0  0  0  0  0
  -16.1491   -5.3116   31.2373 H   0  0  0  0  0  0  0  0  0  0  0  0
  -17.1573   -5.5824   33.2909 H   0  0  0  0  0  0  0  0  0  0  0  0
  -16.8190   -3.8318   33.1833 H   0  0  0  0  0  0  0  0  0  0  0  0
  -19.7246   -6.3516   32.6478 H   0  0  0  0  0  0  0  0  0  0  0  0
  -19.5697   -4.3687   30.2825 H   0  0  0  0  0  0  0  0  0  0  0  0
  -19.0396   -5.6441   34.8524 H   0  0  0  0  0  0  0  0  0  0  0  0
  -20.2704   -4.3239   34.8211 H   0  0  0  0  0  0  0  0  0  0  0  0
  -18.5538   -3.9399   35.1788 H   0  0  0  0  0  0  0  0  0  0  0  0
  -21.3491   -6.1128   30.0784 H   0  0  0  0  0  0  0  0  0  0  0  0
  -20.0022   -6.3495   28.9272 H   0  0  0  0  0  0  0  0  0  0  0  0
  -20.1132   -7.3960   30.3950 H   0  0  0  0  0  0  0  0  0  0  0  0
  -18.3052   -5.2095   27.6046 H   0  0  0  0  0  0  0  0  0  0  0  0
  -18.8428   -4.4273   24.6789 H   0  0  0  0  0  0  0  0  0  0  0  0
  -20.6489   -5.4656   26.9304 H   0  0  0  0  0  0  0  0  0  0  0  0
  -20.8536   -7.5408   25.6089 H   0  0  0  0  0  0  0  0  0  0  0  0
  -19.8054   -6.8554   24.3068 H   0  0  0  0  0  0  0  0  0  0  0  0
  -18.9975   -7.4108   27.2415 H   0  0  0  0  0  0  0  0  0  0  0  0
  -17.4121   -9.0036   26.2367 H   0  0  0  0  0  0  0  0  0  0  0  0
  -18.0351   -8.6267   24.5848 H   0  0  0  0  0  0  0  0  0  0  0  0
  -19.1120   -9.4221   25.8042 H   0  0  0  0  0  0  0  0  0  0  0  0
  -20.5525   -5.1853   23.3010 H   0  0  0  0  0  0  0  0  0  0  0  0
  -21.3865   -3.5746   23.4150 H   0  0  0  0  0  0  0  0  0  0  0  0
  -22.3394   -5.0476   23.1837 H   0  0  0  0  0  0  0  0  0  0  0  0
  -22.8541   -6.5158   24.9701 H   0  0  0  0  0  0  0  0  0  0  0  0
  -23.6916   -4.9278   25.1450 H   0  0  0  0  0  0  0  0  0  0  0  0
  -22.9182   -5.6697   26.5724 H   0  0  0  0  0  0  0  0  0  0  0  0
  -14.5987   -1.3955   32.6078 H   0  0  0  0  0  0  0  0  0  0  0  0
  -14.1333   -3.0505   32.0491 H   0  0  0  0  0  0  0  0  0  0  0  0
  -15.7904   -2.7311   32.6970 H   0  0  0  0  0  0  0  0  0  0  0  0
  -17.6277   -1.2727   28.7906 H   0  0  0  0  0  0  0  0  0  0  0  0
  -18.4486   -2.8363   28.4664 H   0  0  0  0  0  0  0  0  0  0  0  0
  -17.6960   -1.9017   27.1177 H   0  0  0  0  0  0  0  0  0  0  0  0
  -14.7605   -6.5611   27.2134 H   0  0  0  0  0  0  0  0  0  0  0  0
  -13.3927   -6.0318   26.1923 H   0  0  0  0  0  0  0  0  0  0  0  0
  -15.0798   -5.9931   25.5580 H   0  0  0  0  0  0  0  0  0  0  0  0
  -11.8864   -4.6454   25.3869 H   0  0  0  0  0  0  0  0  0  0  0  0
  -12.7253   -4.2154   23.8378 H   0  0  0  0  0  0  0  0  0  0  0  0
  -11.2394   -3.3440   24.3790 H   0  0  0  0  0  0  0  0  0  0  0  0
  -13.6296    1.9946   24.9510 H   0  0  0  0  0  0  0  0  0  0  0  0
  -12.0837    1.1379   24.5597 H   0  0  0  0  0  0  0  0  0  0  0  0
  -13.5190    0.9988   23.4859 H   0  0  0  0  0  0  0  0  0  0  0  0
  -15.9823    0.1617   27.3666 H   0  0  0  0  0  0  0  0  0  0  0  0
  -16.0556    1.8561   27.9521 H   0  0  0  0  0  0  0  0  0  0  0  0
  -15.7102    1.5467   26.2412 H   0  0  0  0  0  0  0  0  0  0  0  0
  -13.0552    3.0571   29.4287 H   0  0  0  0  0  0  0  0  0  0  0  0
  -14.8398    2.8859   29.5002 H   0  0  0  0  0  0  0  0  0  0  0  0
  -13.8274    3.2764   31.7418 H   0  0  0  0  0  0  0  0  0  0  0  0
  -12.8925    1.7420   31.5936 H   0  0  0  0  0  0  0  0  0  0  0  0
  -14.7037    1.7067   31.6681 H   0  0  0  0  0  0  0  0  0  0  0  0
  3  1  2  0
  4  1  1  0
  5  1  1  0
  6  4  1  0
  6  7  1  0
  8  6  1  0
 10  8  1  0
 12 10  1  0
 14 12  1  0
 10 15  1  0
 16 14  1  0
 18 16  1  0
 20 18  1  0
 12 21  1  1
 22 20  1  0
 23 18  2  0
 24 22  1  0
 22 25  1  0
 26 24  1  0
 26  5  1  0
 27  9  1  0
 27  7  1  0
 28 27  1  0
 29 28  1  0
 29 11  1  6
 30 13  1  0
 30 29  1  0
 31 30  1  0
 31  9  1  0
 29 32  1  0
 31 33  1  0
 34 19  1  0
 34 15  1  0
 35 34  1  0
 35 17  1  0
 36 35  1  0
 36  2  1  0
 37 36  1  0
 38 37  1  0
 38 19  1  0
 38 39  1  0
 40  2  1  0
 41  2  1  0
  4 42  1  0
  8 43  1  0
 12 44  1  0
 16 45  1  0
 20 46  1  0
 24 47  1  0
 26 48  1  0
 49 48  1  0
  4 50  1  1
  6 51  1  6
  8 52  1  6
 10 53  1  1
 11 54  1  0
 13 55  1  0
 14 56  1  0
 14 57  1  0
 16 58  1  1
 17 59  1  0
 20 60  1  1
 21 61  1  0
 22 62  1  1
 24 63  1  6
 25 64  1  0
 26 65  1  6
 27 66  1  1
 28 67  1  0
 28 68  1  0
 30 69  1  1
 31 70  1  6
 32 71  1  0
 32 72  1  0
 32 73  1  0
 33 74  1  0
 33 75  1  0
 33 76  1  0
 34 77  1  1
 35 78  1  6
 36 79  1  1
 37 80  1  0
 37 81  1  0
 38 82  1  1
 39 83  1  0
 39 84  1  0
 39 85  1  0
 40 86  1  0
 40 87  1  0
 40 88  1  0
 41 89  1  0
 41 90  1  0
 41 91  1  0
 42 92  1  0
 42 93  1  0
 42 94  1  0
 43 95  1  0
 43 96  1  0
 43 97  1  0
 44 98  1  0
 44 99  1  0
 44100  1  0
 45101  1  0
 45102  1  0
 45103  1  0
 46104  1  0
 46105  1  0
 46106  1  0
 47107  1  0
 47108  1  0
 47109  1  0
 48110  1  0
 48111  1  0
 49112  1  0
 49113  1  0
 49114  1  0
M  END
