
     RDKit          3D

 13 12  0  0  0  0  0  0  0  0999 V2000
   28.4388   33.3061   -5.7165 C   0  0  0  0  0  0  0  0  0  0  0  0
   25.9045   35.4329   -7.1083 O   0  0  0  0  0  0  0  0  0  0  0  0
   29.6365   32.9602   -7.0211 S   0  0  0  0  0  0  0  0  0  0  0  0
   28.1294   34.7844   -5.7261 C   0  0  0  0  0  0  0  0  0  0  0  0
   25.7042   33.7357   -5.3181 O   0  0  0  0  0  0  0  0  0  0  0  0
   26.3865   34.9987   -5.7548 S   0  0  0  0  0  0  0  0  0  0  0  0
   26.0200   36.1786   -4.6631 O   0  0  0  0  0  0  0  0  0  0  0  0
   28.8919   33.0077   -4.7467 H   0  0  0  0  0  0  0  0  0  0  0  0
   27.5174   32.7098   -5.8908 H   0  0  0  0  0  0  0  0  0  0  0  0
   30.1190   34.2833   -7.0426 H   0  0  0  0  0  0  0  0  0  0  0  0
   28.5734   35.2622   -6.6255 H   0  0  0  0  0  0  0  0  0  0  0  0
   28.5320   35.2754   -4.8140 H   0  0  0  0  0  0  0  0  0  0  0  0
   25.0325   36.2560   -4.6881 H   0  0  0  0  0  0  0  0  0  0  0  0
  3  1  1  0
  4  1  1  0
  6  4  1  0
  6  2  2  0
  6  5  2  0
  6  7  1  0
  1  8  1  0
  1  9  1  0
  3 10  1  0
  4 11  1  0
  4 12  1  0
  7 13  1  0
M  END
