
     RDKit          3D

 13 12  0  0  0  0  0  0  0  0999 V2000
   29.0820   32.2436   -5.9692 C   0  0  0  0  0  0  0  0  0  0  0  0
   26.6847   35.3764   -5.8988 O   0  0  0  0  0  0  0  0  0  0  0  0
   30.1857   31.8607   -7.3444 S   0  0  0  0  0  0  0  0  0  0  0  0
   28.8230   33.7316   -5.9593 C   0  0  0  0  0  0  0  0  0  0  0  0
   26.2705   32.9407   -6.0433 O   0  0  0  0  0  0  0  0  0  0  0  0
   27.1565   34.0138   -5.4822 S   0  0  0  0  0  0  0  0  0  0  0  0
   27.0945   33.9163   -3.8375 O   0  0  0  0  0  0  0  0  0  0  0  0
   29.5829   31.9276   -5.0289 H   0  0  0  0  0  0  0  0  0  0  0  0
   28.1321   31.6793   -6.0873 H   0  0  0  0  0  0  0  0  0  0  0  0
   30.5927   33.2003   -7.4986 H   0  0  0  0  0  0  0  0  0  0  0  0
   28.9923   34.1560   -6.9719 H   0  0  0  0  0  0  0  0  0  0  0  0
   29.4911   34.2413   -5.2320 H   0  0  0  0  0  0  0  0  0  0  0  0
   26.5520   33.1095   -3.6468 H   0  0  0  0  0  0  0  0  0  0  0  0
  3  1  1  0
  4  1  1  0
  6  4  1  0
  6  2  2  0
  6  5  2  0
  6  7  1  0
  1  8  1  0
  1  9  1  0
  3 10  1  0
  4 11  1  0
  4 12  1  0
  7 13  1  0
M  END
