
     RDKit          3D

 24 24  0  0  0  0  0  0  0  0999 V2000
    7.0172    3.4377    3.4645 C   0  0  0  0  0  0  0  0  0  0  0  0
    5.7127    4.2434    3.3508 C   0  0  2  0  0  0  0  0  0  0  0  0
    4.8020    3.5723    2.5198 O   0  0  0  0  0  0  0  0  0  0  0  0
    6.0327    5.6327    2.7707 C   0  0  1  0  0  0  0  0  0  0  0  0
    4.8521    6.3883    2.6516 O   0  0  0  0  0  0  0  0  0  0  0  0
    7.0264    6.3484    3.7063 C   0  0  2  0  0  0  0  0  0  0  0  0
    7.3731    7.6052    3.1691 O   0  0  0  0  0  0  0  0  0  0  0  0
    8.3021    5.4774    3.8950 C   0  0  2  0  0  0  0  0  0  0  0  0
    7.9612    4.1173    4.3570 N   0  0  0  0  0  0  0  0  0  0  0  0
    9.2303    6.1122    4.9397 C   0  0  0  0  0  0  0  0  0  0  0  0
    8.5475    7.1425    5.6116 O   0  0  0  0  0  0  0  0  0  0  0  0
    7.4723    3.2916    2.4582 H   0  0  0  0  0  0  0  0  0  0  0  0
    6.7873    2.4341    3.8835 H   0  0  0  0  0  0  0  0  0  0  0  0
    5.2664    4.3677    4.3665 H   0  0  0  0  0  0  0  0  0  0  0  0
    4.0301    3.3153    3.0891 H   0  0  0  0  0  0  0  0  0  0  0  0
    6.4991    5.5013    1.7639 H   0  0  0  0  0  0  0  0  0  0  0  0
    4.9786    7.0063    1.8850 H   0  0  0  0  0  0  0  0  0  0  0  0
    6.5370    6.4853    4.7010 H   0  0  0  0  0  0  0  0  0  0  0  0
    6.5248    8.0800    2.9677 H   0  0  0  0  0  0  0  0  0  0  0  0
    8.8495    5.4181    2.9259 H   0  0  0  0  0  0  0  0  0  0  0  0
    8.8385    3.5450    4.3726 H   0  0  0  0  0  0  0  0  0  0  0  0
   10.1316    6.5356    4.4480 H   0  0  0  0  0  0  0  0  0  0  0  0
    9.5843    5.3363    5.6577 H   0  0  0  0  0  0  0  0  0  0  0  0
    8.1987    6.7570    6.4574 H   0  0  0  0  0  0  0  0  0  0  0  0
  2  1  1  0
  2  3  1  0
  4  2  1  0
  4  5  1  0
  6  4  1  0
  6  7  1  0
  8  6  1  0
  9  1  1  0
  9  8  1  0
  8 10  1  0
 11 10  1  0
  1 12  1  0
  1 13  1  0
  2 14  1  1
  3 15  1  0
  4 16  1  6
  5 17  1  0
  6 18  1  1
  7 19  1  0
  8 20  1  6
  9 21  1  0
 10 22  1  0
 10 23  1  0
 11 24  1  0
M  END
