
     RDKit          3D

 24 24  0  0  0  0  0  0  0  0999 V2000
    6.9859    3.0463    3.1626 C   0  0  0  0  0  0  0  0  0  0  0  0
    5.6814    3.8521    3.0489 C   0  0  2  0  0  0  0  0  0  0  0  0
    4.7707    3.1809    2.2179 O   0  0  0  0  0  0  0  0  0  0  0  0
    6.0015    5.2413    2.4687 C   0  0  1  0  0  0  0  0  0  0  0  0
    4.8209    5.9969    2.3497 O   0  0  0  0  0  0  0  0  0  0  0  0
    6.9952    5.9571    3.4044 C   0  0  2  0  0  0  0  0  0  0  0  0
    7.3419    7.2138    2.8672 O   0  0  0  0  0  0  0  0  0  0  0  0
    8.2709    5.0861    3.5931 C   0  0  2  0  0  0  0  0  0  0  0  0
    7.9299    3.7259    4.0551 N   0  0  0  0  0  0  0  0  0  0  0  0
    9.1990    5.7209    4.6378 C   0  0  0  0  0  0  0  0  0  0  0  0
    8.7916    7.0442    4.8870 O   0  0  0  0  0  0  0  0  0  0  0  0
    7.4410    2.9003    2.1563 H   0  0  0  0  0  0  0  0  0  0  0  0
    6.7560    2.0427    3.5816 H   0  0  0  0  0  0  0  0  0  0  0  0
    5.2352    3.9764    4.0646 H   0  0  0  0  0  0  0  0  0  0  0  0
    3.9485    3.0327    2.7545 H   0  0  0  0  0  0  0  0  0  0  0  0
    6.4678    5.1099    1.4620 H   0  0  0  0  0  0  0  0  0  0  0  0
    5.0875    6.9098    2.0648 H   0  0  0  0  0  0  0  0  0  0  0  0
    6.5058    6.0939    4.3991 H   0  0  0  0  0  0  0  0  0  0  0  0
    8.3217    7.3211    2.9858 H   0  0  0  0  0  0  0  0  0  0  0  0
    8.8182    5.0267    2.6240 H   0  0  0  0  0  0  0  0  0  0  0  0
    8.8073    3.1536    4.0707 H   0  0  0  0  0  0  0  0  0  0  0  0
   10.2466    5.7277    4.2692 H   0  0  0  0  0  0  0  0  0  0  0  0
    9.1870    5.1183    5.5758 H   0  0  0  0  0  0  0  0  0  0  0  0
    9.3809    7.4002    5.6022 H   0  0  0  0  0  0  0  0  0  0  0  0
  2  1  1  0
  2  3  1  0
  4  2  1  0
  4  5  1  0
  6  4  1  0
  6  7  1  0
  8  6  1  0
  9  1  1  0
  9  8  1  0
  8 10  1  0
 11 10  1  0
  1 12  1  0
  1 13  1  0
  2 14  1  1
  3 15  1  0
  4 16  1  6
  5 17  1  0
  6 18  1  1
  7 19  1  0
  8 20  1  6
  9 21  1  0
 10 22  1  0
 10 23  1  0
 11 24  1  0
M  END
