
     RDKit          3D

 24 24  0  0  0  0  0  0  0  0999 V2000
   48.3000   36.4480   32.6582 C   0  0  0  0  0  0  0  0  0  0  0  0
   49.6034   36.1552   31.8933 C   0  0  2  0  0  0  0  0  0  0  0  0
   50.5103   37.2130   32.0638 O   0  0  0  0  0  0  0  0  0  0  0  0
   49.2676   35.9691   30.3996 C   0  0  1  0  0  0  0  0  0  0  0  0
   50.4268   35.7387   29.6351 O   0  0  0  0  0  0  0  0  0  0  0  0
   48.2609   34.8042   30.2402 C   0  0  2  0  0  0  0  0  0  0  0  0
   47.9141   34.6331   28.8839 O   0  0  0  0  0  0  0  0  0  0  0  0
   46.9993   35.0494   31.1253 C   0  0  2  0  0  0  0  0  0  0  0  0
   47.3583   35.3323   32.5296 N   0  0  0  0  0  0  0  0  0  0  0  0
   46.0516   33.8393   31.1029 C   0  0  0  0  0  0  0  0  0  0  0  0
   45.5814   33.5757   32.4040 O   0  0  0  0  0  0  0  0  0  0  0  0
   48.5313   36.6013   33.7348 H   0  0  0  0  0  0  0  0  0  0  0  0
   47.8299   37.3843   32.2835 H   0  0  0  0  0  0  0  0  0  0  0  0
   50.0577   35.2137   32.2846 H   0  0  0  0  0  0  0  0  0  0  0  0
   50.4234   37.5164   33.0053 H   0  0  0  0  0  0  0  0  0  0  0  0
   48.7981   36.9050   30.0220 H   0  0  0  0  0  0  0  0  0  0  0  0
   50.4594   36.4313   28.9243 H   0  0  0  0  0  0  0  0  0  0  0  0
   48.7550   33.8680   30.5826 H   0  0  0  0  0  0  0  0  0  0  0  0
   47.3896   33.7930   28.8138 H   0  0  0  0  0  0  0  0  0  0  0  0
   46.4412   35.9231   30.7191 H   0  0  0  0  0  0  0  0  0  0  0  0
   47.8166   34.4954   32.9612 H   0  0  0  0  0  0  0  0  0  0  0  0
   45.2083   34.0430   30.4012 H   0  0  0  0  0  0  0  0  0  0  0  0
   46.5840   32.9424   30.7217 H   0  0  0  0  0  0  0  0  0  0  0  0
   46.0155   34.2288   33.0129 H   0  0  0  0  0  0  0  0  0  0  0  0
  2  1  1  0
  2  3  1  0
  4  2  1  0
  4  5  1  0
  6  4  1  0
  6  7  1  0
  8  6  1  0
  9  8  1  0
  9  1  1  0
  8 10  1  0
 11 10  1  0
  1 12  1  0
  1 13  1  0
  2 14  1  1
  3 15  1  0
  4 16  1  6
  5 17  1  0
  6 18  1  1
  7 19  1  0
  8 20  1  6
  9 21  1  0
 10 22  1  0
 10 23  1  0
 11 24  1  0
M  END
