
     RDKit          3D

 19 18  0  0  0  0  0  0  0  0999 V2000
 -131.6307   27.5831  128.0821 P   0  0  0  0  0  0  0  0  0  0  0  0
 -133.0498   28.6877  127.9957 C   0  0  0  0  0  0  0  0  0  0  0  0
 -133.0035   29.4973  126.7709 N   0  0  0  0  0  0  0  0  0  0  0  0
 -130.7727   27.7326  126.8503 O   0  0  0  0  0  0  0  0  0  0  0  0
 -134.0694   30.5048  126.7179 C   0  0  0  0  0  0  0  0  0  0  0  0
 -132.2554   26.0313  128.1660 O   0  0  0  0  0  0  0  0  0  0  0  0
 -134.1667   31.3896  127.9253 C   0  0  0  0  0  0  0  0  0  0  0  0
 -130.7123   27.8891  129.4507 O   0  0  0  0  0  0  0  0  0  0  0  0
 -135.0600   31.2558  128.8054 O   0  0  0  0  0  0  0  0  0  0  0  0
 -133.2207   32.3849  128.0514 O   0  0  0  0  0  0  0  0  0  0  0  0
 -133.0531   29.3279  128.9020 H   0  0  0  0  0  0  0  0  0  0  0  0
 -133.9642   28.0545  128.0079 H   0  0  0  0  0  0  0  0  0  0  0  0
 -132.0692   29.9635  126.6911 H   0  0  0  0  0  0  0  0  0  0  0  0
 -133.1384   28.8908  125.9297 H   0  0  0  0  0  0  0  0  0  0  0  0
 -133.8937   31.1640  125.8389 H   0  0  0  0  0  0  0  0  0  0  0  0
 -135.0542   30.0140  126.5513 H   0  0  0  0  0  0  0  0  0  0  0  0
 -131.5153   25.4409  127.8750 H   0  0  0  0  0  0  0  0  0  0  0  0
 -131.2315   27.5010  130.1994 H   0  0  0  0  0  0  0  0  0  0  0  0
 -132.5112   32.5214  127.3412 H   0  0  0  0  0  0  0  0  0  0  0  0
  2  1  1  0
  3  2  1  0
  4  1  2  0
  5  3  1  0
  6  1  1  0
  7  5  1  0
  8  1  1  0
  9  7  2  0
 10  7  1  0
  2 11  1  0
  2 12  1  0
  3 13  1  0
  3 14  1  0
  5 15  1  0
  5 16  1  0
  6 17  1  0
  8 18  1  0
 10 19  1  0
M  CHG  1   3   1
M  END
