
     RDKit          3D

 20 20  0  0  0  0  0  0  0  0999 V2000
    1.3025   -3.9349    0.6454 N   0  0  0  0  0  0  0  0  0  0  0  0
    1.5757   -4.4034    2.0144 C   0  0  0  0  0  0  0  0  0  0  0  0
    0.8271   -5.6970    2.2836 C   0  0  0  0  0  0  0  0  0  0  0  0
    0.1623   -5.8355    3.3452 O   0  0  0  0  0  0  0  0  0  0  0  0
    3.1066   -4.5498    2.2029 C   0  0  0  0  0  0  0  0  0  0  0  0
    1.1537   -3.3204    3.0208 C   0  0  0  0  0  0  0  0  0  0  0  0
    3.5411   -3.4448    3.1623 C   0  0  0  0  0  0  0  0  0  0  0  0
    2.3867   -2.4635    3.2198 C   0  0  0  0  0  0  0  0  0  0  0  0
    0.9063   -6.7655    1.4050 O   0  0  0  0  0  0  0  0  0  0  0  0
    0.2731   -3.9548    0.4566 H   0  0  0  0  0  0  0  0  0  0  0  0
    1.7585   -4.5799   -0.0417 H   0  0  0  0  0  0  0  0  0  0  0  0
    3.6411   -4.4220    1.2352 H   0  0  0  0  0  0  0  0  0  0  0  0
    3.4077   -5.5416    2.6027 H   0  0  0  0  0  0  0  0  0  0  0  0
    0.8726   -3.7697    4.0003 H   0  0  0  0  0  0  0  0  0  0  0  0
    0.2980   -2.7092    2.6595 H   0  0  0  0  0  0  0  0  0  0  0  0
    4.4723   -2.9461    2.8158 H   0  0  0  0  0  0  0  0  0  0  0  0
    3.7132   -3.8743    4.1742 H   0  0  0  0  0  0  0  0  0  0  0  0
    2.4732   -1.7273    2.3899 H   0  0  0  0  0  0  0  0  0  0  0  0
    2.3569   -1.9262    4.1924 H   0  0  0  0  0  0  0  0  0  0  0  0
    0.1647   -6.9770    0.7487 H   0  0  0  0  0  0  0  0  0  0  0  0
  2  1  1  0
  3  2  1  0
  4  3  2  0
  5  2  1  0
  6  2  1  0
  7  5  1  0
  8  7  1  0
  8  6  1  0
  9  3  1  0
  1 10  1  0
  1 11  1  0
  5 12  1  0
  5 13  1  0
  6 14  1  0
  6 15  1  0
  7 16  1  0
  7 17  1  0
  8 18  1  0
  8 19  1  0
  9 20  1  0
M  END
