
     RDKit          3D

 34 35  0  0  0  0  0  0  0  0999 V2000
  -21.4483    6.1552   38.4854 P   0  0  0  0  0  0  0  0  0  0  0  0
  -21.1293    7.2592   39.4659 O   0  0  0  0  0  0  0  0  0  0  0  0
  -22.7159    6.6149   37.4870 O   0  0  0  0  0  0  0  0  0  0  0  0
  -21.8682    4.7413   39.2831 O   0  0  0  0  0  0  0  0  0  0  0  0
  -20.1433    4.5162   37.0345 C   0  0  0  0  0  0  0  0  0  0  0  0
  -20.1407    5.8490   37.4761 O   0  0  0  0  0  0  0  0  0  0  0  0
  -18.9252    4.3154   36.1165 C   0  0  1  0  0  0  0  0  0  0  0  0
  -18.8174    2.9396   35.7857 O   0  0  0  0  0  0  0  0  0  0  0  0
  -19.0163    5.1471   34.8190 C   0  0  1  0  0  0  0  0  0  0  0  0
  -17.7675    5.7343   34.5373 O   0  0  0  0  0  0  0  0  0  0  0  0
  -19.3846    4.0915   33.7803 C   0  0  1  0  0  0  0  0  0  0  0  0
  -18.8359    4.3557   32.5155 O   0  0  0  0  0  0  0  0  0  0  0  0
  -18.7960    2.8147   34.3779 C   0  0  2  0  0  0  0  0  0  0  0  0
  -19.5265    1.5862   33.9595 N   0  0  0  0  0  0  0  0  0  0  0  0
  -19.0679    0.3277   34.2911 C   0  0  0  0  0  0  0  0  0  0  0  0
  -17.9826    0.1824   34.9295 O   0  0  0  0  0  0  0  0  0  0  0  0
  -19.7880   -0.7807   33.9371 N   0  0  0  0  0  0  0  0  0  0  0  0
  -20.9630   -0.6729   33.2556 C   0  0  0  0  0  0  0  0  0  0  0  0
  -21.6122   -1.7068   32.9417 O   0  0  0  0  0  0  0  0  0  0  0  0
  -21.4451    0.5858   32.9049 C   0  0  0  0  0  0  0  0  0  0  0  0
  -20.7027    1.7082   33.2679 C   0  0  0  0  0  0  0  0  0  0  0  0
  -22.3757    7.4026   36.9920 H   0  0  0  0  0  0  0  0  0  0  0  0
  -21.6845    4.9263   40.2386 H   0  0  0  0  0  0  0  0  0  0  0  0
  -20.0388    3.8222   37.8989 H   0  0  0  0  0  0  0  0  0  0  0  0
  -21.0793    4.2781   36.4801 H   0  0  0  0  0  0  0  0  0  0  0  0
  -18.0159    4.6035   36.6899 H   0  0  0  0  0  0  0  0  0  0  0  0
  -19.7928    5.9466   34.8689 H   0  0  0  0  0  0  0  0  0  0  0  0
  -17.0814    5.0270   34.6590 H   0  0  0  0  0  0  0  0  0  0  0  0
  -20.4938    4.0026   33.7104 H   0  0  0  0  0  0  0  0  0  0  0  0
  -18.1973    5.1054   32.6395 H   0  0  0  0  0  0  0  0  0  0  0  0
  -17.7241    2.7500   34.0834 H   0  0  0  0  0  0  0  0  0  0  0  0
  -19.4311   -1.7290   34.1963 H   0  0  0  0  0  0  0  0  0  0  0  0
  -22.3759    0.6957   32.3621 H   0  0  0  0  0  0  0  0  0  0  0  0
  -21.0815    2.6864   32.9971 H   0  0  0  0  0  0  0  0  0  0  0  0
  2  1  2  0
  3  1  1  0
  4  1  1  0
  6  1  1  0
  6  5  1  0
  7  5  1  0
  8  7  1  0
  9  7  1  0
  9 10  1  0
 11  9  1  0
 11 12  1  0
 13 11  1  0
 13  8  1  0
 13 14  1  0
 15 14  1  0
 16 15  2  0
 17 15  1  0
 18 17  1  0
 19 18  2  0
 20 18  1  0
 21 20  2  0
 21 14  1  0
  3 22  1  0
  4 23  1  0
  5 24  1  0
  5 25  1  0
  7 26  1  1
  9 27  1  1
 10 28  1  0
 11 29  1  6
 12 30  1  0
 13 31  1  6
 17 32  1  0
 20 33  1  0
 21 34  1  0
M  END
