
     RDKit          3D

 34 35  0  0  0  0  0  0  0  0999 V2000
  -22.2822    5.8575   35.0508 P   0  0  0  0  0  0  0  0  0  0  0  0
  -21.3008    6.9957   34.8984 O   0  0  0  0  0  0  0  0  0  0  0  0
  -23.3320    5.8182   33.7427 O   0  0  0  0  0  0  0  0  0  0  0  0
  -23.1750    6.0141   36.4614 O   0  0  0  0  0  0  0  0  0  0  0  0
  -20.6526    4.2597   36.1847 C   0  0  0  0  0  0  0  0  0  0  0  0
  -21.4899    4.3762   35.0637 O   0  0  0  0  0  0  0  0  0  0  0  0
  -19.1990    4.1767   35.6878 C   0  0  1  0  0  0  0  0  0  0  0  0
  -18.8995    2.8294   35.3573 O   0  0  0  0  0  0  0  0  0  0  0  0
  -18.9397    5.0739   34.4584 C   0  0  1  0  0  0  0  0  0  0  0  0
  -17.7086    5.7424   34.6037 O   0  0  0  0  0  0  0  0  0  0  0  0
  -18.8940    4.0600   33.3187 C   0  0  1  0  0  0  0  0  0  0  0  0
  -17.9994    4.4241   32.3000 O   0  0  0  0  0  0  0  0  0  0  0  0
  -18.4337    2.7852   34.0235 C   0  0  2  0  0  0  0  0  0  0  0  0
  -18.9121    1.5446   33.3527 N   0  0  0  0  0  0  0  0  0  0  0  0
  -20.0926    1.5214   32.6387 C   0  0  0  0  0  0  0  0  0  0  0  0
  -20.8268    2.5522   32.5695 O   0  0  0  0  0  0  0  0  0  0  0  0
  -20.4803    0.3807   31.9899 N   0  0  0  0  0  0  0  0  0  0  0  0
  -19.7204   -0.7496   32.0314 C   0  0  0  0  0  0  0  0  0  0  0  0
  -20.0945   -1.7889   31.4242 O   0  0  0  0  0  0  0  0  0  0  0  0
  -18.5268   -0.7536   32.7492 C   0  0  0  0  0  0  0  0  0  0  0  0
  -18.1424    0.4128   33.4085 C   0  0  0  0  0  0  0  0  0  0  0  0
  -22.7526    5.6465   32.9578 H   0  0  0  0  0  0  0  0  0  0  0  0
  -23.9369    6.5968   36.2148 H   0  0  0  0  0  0  0  0  0  0  0  0
  -20.7428    5.1624   36.8303 H   0  0  0  0  0  0  0  0  0  0  0  0
  -20.9020    3.3525   36.7804 H   0  0  0  0  0  0  0  0  0  0  0  0
  -18.5346    4.4806   36.5273 H   0  0  0  0  0  0  0  0  0  0  0  0
  -19.7464    5.8263   34.2918 H   0  0  0  0  0  0  0  0  0  0  0  0
  -17.7068    6.4900   33.9504 H   0  0  0  0  0  0  0  0  0  0  0  0
  -19.9179    3.9155   32.9017 H   0  0  0  0  0  0  0  0  0  0  0  0
  -18.5544    4.7559   31.5469 H   0  0  0  0  0  0  0  0  0  0  0  0
  -17.3216    2.7950   34.0775 H   0  0  0  0  0  0  0  0  0  0  0  0
  -21.3760    0.3764   31.4501 H   0  0  0  0  0  0  0  0  0  0  0  0
  -17.9072   -1.6407   32.7971 H   0  0  0  0  0  0  0  0  0  0  0  0
  -17.2118    0.4083   33.9633 H   0  0  0  0  0  0  0  0  0  0  0  0
  2  1  2  0
  3  1  1  0
  4  1  1  0
  6  1  1  0
  6  5  1  0
  7  5  1  0
  8  7  1  0
  9  7  1  0
  9 10  1  0
 11  9  1  0
 11 12  1  0
 13 11  1  0
 13  8  1  0
 13 14  1  0
 15 14  1  0
 16 15  2  0
 17 15  1  0
 18 17  1  0
 19 18  2  0
 20 18  1  0
 21 20  2  0
 21 14  1  0
  3 22  1  0
  4 23  1  0
  5 24  1  0
  5 25  1  0
  7 26  1  1
  9 27  1  6
 10 28  1  0
 11 29  1  6
 12 30  1  0
 13 31  1  1
 17 32  1  0
 20 33  1  0
 21 34  1  0
M  END
