
     RDKit          3D

 34 35  0  0  0  0  0  0  0  0999 V2000
  -26.1197   17.8798  -16.0043 P   0  0  0  0  0  0  0  0  0  0  0  0
  -27.1004   17.2988  -15.0138 O   0  0  0  0  0  0  0  0  0  0  0  0
  -26.8610   19.0226  -16.9807 O   0  0  0  0  0  0  0  0  0  0  0  0
  -25.4558   16.6735  -16.9625 O   0  0  0  0  0  0  0  0  0  0  0  0
  -24.2933   17.7807  -14.2540 C   0  0  0  0  0  0  0  0  0  0  0  0
  -24.8821   18.6575  -15.1821 O   0  0  0  0  0  0  0  0  0  0  0  0
  -22.7719   17.9243  -14.3198 C   0  0  1  0  0  0  0  0  0  0  0  0
  -22.4412   19.2386  -14.7228 O   0  0  0  0  0  0  0  0  0  0  0  0
  -22.1000   17.5993  -12.9840 C   0  0  1  0  0  0  0  0  0  0  0  0
  -21.1385   16.5751  -13.1238 O   0  0  0  0  0  0  0  0  0  0  0  0
  -21.4946   18.9277  -12.5325 C   0  0  1  0  0  0  0  0  0  0  0  0
  -20.1079   18.8255  -12.3172 O   0  0  0  0  0  0  0  0  0  0  0  0
  -21.7697   19.9175  -13.6802 C   0  0  2  0  0  0  0  0  0  0  0  0
  -22.5265   21.1368  -13.2480 N   0  0  0  0  0  0  0  0  0  0  0  0
  -22.0051   21.9937  -12.2952 C   0  0  0  0  0  0  0  0  0  0  0  0
  -20.8832   21.7513  -11.7535 O   0  0  0  0  0  0  0  0  0  0  0  0
  -22.6974   23.1190  -11.9265 N   0  0  0  0  0  0  0  0  0  0  0  0
  -23.8959   23.4368  -12.4950 C   0  0  0  0  0  0  0  0  0  0  0  0
  -24.5172   24.4745  -12.1355 O   0  0  0  0  0  0  0  0  0  0  0  0
  -24.4284   22.6135  -13.4829 C   0  0  0  0  0  0  0  0  0  0  0  0
  -23.7166   21.4709  -13.8560 C   0  0  0  0  0  0  0  0  0  0  0  0
  -27.7906   19.0792  -16.6431 H   0  0  0  0  0  0  0  0  0  0  0  0
  -26.2352   16.2166  -17.3683 H   0  0  0  0  0  0  0  0  0  0  0  0
  -24.5396   16.6990  -14.3849 H   0  0  0  0  0  0  0  0  0  0  0  0
  -24.6644   18.0826  -13.2504 H   0  0  0  0  0  0  0  0  0  0  0  0
  -22.4089   17.2326  -15.1124 H   0  0  0  0  0  0  0  0  0  0  0  0
  -22.8341   17.2578  -12.2209 H   0  0  0  0  0  0  0  0  0  0  0  0
  -20.9901   16.1678  -12.2297 H   0  0  0  0  0  0  0  0  0  0  0  0
  -22.0048   19.2696  -11.6011 H   0  0  0  0  0  0  0  0  0  0  0  0
  -19.6716   19.3734  -13.0209 H   0  0  0  0  0  0  0  0  0  0  0  0
  -20.7994   20.2618  -14.1030 H   0  0  0  0  0  0  0  0  0  0  0  0
  -22.2957   23.7499  -11.1956 H   0  0  0  0  0  0  0  0  0  0  0  0
  -25.3673   22.8573  -13.9650 H   0  0  0  0  0  0  0  0  0  0  0  0
  -24.1283   20.8843  -14.6581 H   0  0  0  0  0  0  0  0  0  0  0  0
  2  1  2  0
  3  1  1  0
  4  1  1  0
  6  5  1  0
  6  1  1  0
  7  5  1  0
  8  7  1  0
  9  7  1  0
  9 10  1  0
 11  9  1  0
 11 12  1  0
 13  8  1  0
 13 11  1  0
 13 14  1  0
 15 14  1  0
 16 15  2  0
 17 15  1  0
 18 17  1  0
 19 18  2  0
 20 18  1  0
 21 14  1  0
 21 20  2  0
  3 22  1  0
  4 23  1  0
  5 24  1  0
  5 25  1  0
  7 26  1  6
  9 27  1  1
 10 28  1  0
 11 29  1  1
 12 30  1  0
 13 31  1  6
 17 32  1  0
 20 33  1  0
 21 34  1  0
M  END
