
     RDKit          3D

 34 35  0  0  0  0  0  0  0  0999 V2000
    3.6442    4.6806  -18.6804 P   0  0  0  0  0  0  0  0  0  0  0  0
    4.8203    4.3607  -19.5721 O   0  0  0  0  0  0  0  0  0  0  0  0
    4.1065    5.7509  -17.4741 O   0  0  0  0  0  0  0  0  0  0  0  0
    3.0303    3.2918  -17.9686 O   0  0  0  0  0  0  0  0  0  0  0  0
    1.5696    4.5142  -20.1546 C   0  0  0  0  0  0  0  0  0  0  0  0
    2.4251    5.4465  -19.5463 O   0  0  0  0  0  0  0  0  0  0  0  0
    0.3791    4.2735  -19.2094 C   0  0  1  0  0  0  0  0  0  0  0  0
    0.3853    2.9174  -18.7894 O   0  0  0  0  0  0  0  0  0  0  0  0
    0.4150    5.1914  -17.9684 C   0  0  1  0  0  0  0  0  0  0  0  0
   -0.8748    5.6893  -17.7023 O   0  0  0  0  0  0  0  0  0  0  0  0
    0.8814    4.2385  -16.8730 C   0  0  1  0  0  0  0  0  0  0  0  0
    0.3345    4.5403  -15.6164 O   0  0  0  0  0  0  0  0  0  0  0  0
    0.3854    2.8856  -17.3758 C   0  0  2  0  0  0  0  0  0  0  0  0
    1.2132    1.7505  -16.8846 N   0  0  0  0  0  0  0  0  0  0  0  0
    1.4582    0.6446  -17.6724 C   0  0  0  0  0  0  0  0  0  0  0  0
    0.9518    0.5503  -18.8309 O   0  0  0  0  0  0  0  0  0  0  0  0
    2.2594   -0.3634  -17.2096 N   0  0  0  0  0  0  0  0  0  0  0  0
    2.8283   -0.3037  -15.9727 C   0  0  0  0  0  0  0  0  0  0  0  0
    3.5656   -1.2424  -15.5669 O   0  0  0  0  0  0  0  0  0  0  0  0
    2.5911    0.7994  -15.1557 C   0  0  0  0  0  0  0  0  0  0  0  0
    1.7720    1.8197  -15.6357 C   0  0  0  0  0  0  0  0  0  0  0  0
    5.0243    6.0299  -17.7209 H   0  0  0  0  0  0  0  0  0  0  0  0
    3.2601    2.5632  -18.5990 H   0  0  0  0  0  0  0  0  0  0  0  0
    1.1699    4.9206  -21.1112 H   0  0  0  0  0  0  0  0  0  0  0  0
    2.0984    3.5545  -20.3524 H   0  0  0  0  0  0  0  0  0  0  0  0
   -0.5556    4.4506  -19.7868 H   0  0  0  0  0  0  0  0  0  0  0  0
    1.1206    6.0483  -18.0805 H   0  0  0  0  0  0  0  0  0  0  0  0
   -1.4662    5.3647  -18.4308 H   0  0  0  0  0  0  0  0  0  0  0  0
    1.9952    4.2406  -16.8209 H   0  0  0  0  0  0  0  0  0  0  0  0
    0.8142    5.3455  -15.2894 H   0  0  0  0  0  0  0  0  0  0  0  0
   -0.6756    2.7588  -17.0624 H   0  0  0  0  0  0  0  0  0  0  0  0
    2.4402   -1.1953  -17.8170 H   0  0  0  0  0  0  0  0  0  0  0  0
    3.0310    0.8675  -14.1683 H   0  0  0  0  0  0  0  0  0  0  0  0
    1.5905    2.6776  -14.9993 H   0  0  0  0  0  0  0  0  0  0  0  0
  2  1  2  0
  3  1  1  0
  4  1  1  0
  6  5  1  0
  6  1  1  0
  7  5  1  0
  8  7  1  0
  9  7  1  0
  9 10  1  0
 11  9  1  0
 11 12  1  0
 13 11  1  0
 13  8  1  0
 13 14  1  0
 15 14  1  0
 16 15  2  0
 17 15  1  0
 18 17  1  0
 19 18  2  0
 20 18  1  0
 21 20  2  0
 21 14  1  0
  3 22  1  0
  4 23  1  0
  5 24  1  0
  5 25  1  0
  7 26  1  6
  9 27  1  6
 10 28  1  0
 11 29  1  1
 12 30  1  0
 13 31  1  1
 17 32  1  0
 20 33  1  0
 21 34  1  0
M  END
