
     RDKit          3D

 24 25  0  0  0  0  0  0  0  0999 V2000
   -8.2340   46.3548   -7.1287 Cl  0  0  0  0  0  0  0  0  0  0  0  0
  -10.6131   49.9454   -3.8754 Cl  0  0  0  0  0  0  0  0  0  0  0  0
  -10.4614   48.2897   -4.4142 C   0  0  0  0  0  0  0  0  0  0  0  0
   -8.3508   43.3589   -3.6681 N   0  0  0  0  0  0  0  0  0  0  0  0
   -9.4373   46.6749   -5.8866 C   0  0  0  0  0  0  0  0  0  0  0  0
   -9.0277   43.7934   -1.5899 N   0  0  0  0  0  0  0  0  0  0  0  0
  -10.2450   45.6516   -5.3465 C   0  0  0  0  0  0  0  0  0  0  0  0
   -6.6300   43.9271   -2.0356 N   0  0  0  0  0  0  0  0  0  0  0  0
  -10.2966   44.2885   -6.0023 C   0  0  0  0  0  0  0  0  0  0  0  0
  -10.1131   43.5378   -2.3090 N   0  0  0  0  0  0  0  0  0  0  0  0
   -9.5495   47.9852   -5.4195 C   0  0  0  0  0  0  0  0  0  0  0  0
  -11.1246   45.9672   -4.2962 C   0  0  0  0  0  0  0  0  0  0  0  0
  -11.2214   47.2780   -3.8275 C   0  0  0  0  0  0  0  0  0  0  0  0
   -7.9790   43.6929   -2.4251 C   0  0  0  0  0  0  0  0  0  0  0  0
   -9.6905   43.2922   -3.5635 C   0  0  0  0  0  0  0  0  0  0  0  0
  -10.7973   42.9072   -4.9124 S   0  0  0  0  0  0  0  0  0  0  0  0
   -7.7411   43.1987   -4.4993 H   0  0  0  0  0  0  0  0  0  0  0  0
   -5.8603   43.8684   -2.7384 H   0  0  0  0  0  0  0  0  0  0  0  0
   -6.4016   44.1612   -1.0442 H   0  0  0  0  0  0  0  0  0  0  0  0
   -9.3468   44.0065   -6.4916 H   0  0  0  0  0  0  0  0  0  0  0  0
  -11.0468   44.3446   -6.8184 H   0  0  0  0  0  0  0  0  0  0  0  0
   -8.9347   48.7680   -5.8466 H   0  0  0  0  0  0  0  0  0  0  0  0
  -11.7725   45.2107   -3.8725 H   0  0  0  0  0  0  0  0  0  0  0  0
  -11.9183   47.5132   -3.0332 H   0  0  0  0  0  0  0  0  0  0  0  0
  3  2  1  0
  5  1  1  0
  7  5  2  0
  9  7  1  0
 10  6  1  0
 11  5  1  0
 11  3  2  0
 12  7  1  0
 13 12  2  0
 13  3  1  0
 14  8  1  0
 14  6  2  0
 14  4  1  0
 15 10  2  0
 15  4  1  0
 16  9  1  0
 16 15  1  0
  4 17  1  0
  8 18  1  0
  8 19  1  0
  9 20  1  0
  9 21  1  0
 11 22  1  0
 12 23  1  0
 13 24  1  0
M  END
