
     RDKit          3D

 35 36  0  0  0  0  0  0  0  0999 V2000
   24.3916   -2.0497    9.2591 P   0  0  0  0  0  0  0  0  0  0  0  0
   22.4341   -0.4833    9.7787 C   0  0  0  0  0  0  0  0  0  0  0  0
   23.4273   -1.2525   10.3886 O   0  0  0  0  0  0  0  0  0  0  0  0
   21.7019    0.2168   10.9336 C   0  0  1  0  0  0  0  0  0  0  0  0
   20.8166    1.1858   10.4240 O   0  0  0  0  0  0  0  0  0  0  0  0
   20.9090   -0.7755   11.8072 C   0  0  1  0  0  0  0  0  0  0  0  0
   20.9254   -0.3950   13.1697 O   0  0  0  0  0  0  0  0  0  0  0  0
   19.5222   -0.6715   11.2247 C   0  0  1  0  0  0  0  0  0  0  0  0
   18.5404   -0.9519   12.1880 O   0  0  0  0  0  0  0  0  0  0  0  0
   19.5103    0.7986   10.7784 C   0  0  2  0  0  0  0  0  0  0  0  0
   18.5893    1.0866    9.6566 N   0  0  0  0  0  0  0  0  0  0  0  0
   17.4984    2.8362   10.9394 O   0  0  0  0  0  0  0  0  0  0  0  0
   18.7364    0.4515    8.4425 C   0  0  0  0  0  0  0  0  0  0  0  0
   19.6173   -0.4289    8.2738 O   0  0  0  0  0  0  0  0  0  0  0  0
   17.9388    0.7728    7.3933 N   0  0  0  0  0  0  0  0  0  0  0  0
   17.0116    1.7515    7.4940 C   0  0  0  0  0  0  0  0  0  0  0  0
   16.2831    2.0291    6.5081 O   0  0  0  0  0  0  0  0  0  0  0  0
   16.8709    2.4515    8.6819 C   0  0  0  0  0  0  0  0  0  0  0  0
   17.6699    2.1048    9.7652 C   0  0  0  0  0  0  0  0  0  0  0  0
   23.5796   -2.7994    8.2296 O   0  0  0  0  0  0  0  0  0  0  0  0
   25.2966   -3.1305   10.1760 O   0  0  0  0  0  0  0  0  0  0  0  0
   25.4104   -0.9448    8.5007 O   0  0  0  0  0  0  0  0  0  0  0  0
   22.8844    0.2824    9.1074 H   0  0  0  0  0  0  0  0  0  0  0  0
   21.7376   -1.1357    9.2145 H   0  0  0  0  0  0  0  0  0  0  0  0
   22.4633    0.7391   11.5558 H   0  0  0  0  0  0  0  0  0  0  0  0
   21.2893   -1.8178   11.7275 H   0  0  0  0  0  0  0  0  0  0  0  0
   21.7910   -0.6645   13.5731 H   0  0  0  0  0  0  0  0  0  0  0  0
   19.4308   -1.3959   10.3897 H   0  0  0  0  0  0  0  0  0  0  0  0
   17.7223   -0.4705   11.8976 H   0  0  0  0  0  0  0  0  0  0  0  0
   19.2686    1.3917   11.6748 H   0  0  0  0  0  0  0  0  0  0  0  0
   17.5191    2.4332   11.8663 H   0  0  0  0  0  0  0  0  0  0  0  0
   18.0522    0.2655    6.4853 H   0  0  0  0  0  0  0  0  0  0  0  0
   16.1418    3.2484    8.7695 H   0  0  0  0  0  0  0  0  0  0  0  0
   26.0934   -2.6153   10.4601 H   0  0  0  0  0  0  0  0  0  0  0  0
   24.8617   -0.5519    7.7757 H   0  0  0  0  0  0  0  0  0  0  0  0
  3  2  1  0
  3  1  1  0
  4  2  1  0
  5  4  1  0
  6  4  1  0
  6  7  1  0
  8  6  1  0
  8  9  1  0
 10  8  1  0
 10  5  1  0
 10 11  1  0
 13 11  1  0
 14 13  2  0
 15 13  1  0
 16 15  1  0
 17 16  2  0
 18 16  1  0
 19 18  2  0
 19 12  1  0
 19 11  1  0
 20  1  2  0
 21  1  1  0
 22  1  1  0
  2 23  1  0
  2 24  1  0
  4 25  1  1
  6 26  1  1
  7 27  1  0
  8 28  1  6
  9 29  1  0
 10 30  1  1
 12 31  1  0
 15 32  1  0
 18 33  1  0
 21 34  1  0
 22 35  1  0
M  END
