
     RDKit          3D

 41 43  0  0  0  0  0  0  0  0999 V2000
   42.5437   -1.9174   33.3430 C   0  0  0  0  0  0  0  0  0  0  0  0
   43.1890   -0.7677   32.9162 O   0  0  0  0  0  0  0  0  0  0  0  0
   42.1491   -1.9779   34.6771 C   0  0  0  0  0  0  0  0  0  0  0  0
   41.4399   -3.0964   35.1461 C   0  0  0  0  0  0  0  0  0  0  0  0
   41.1694   -4.1940   34.2898 C   0  0  0  0  0  0  0  0  0  0  0  0
   41.5872   -4.1067   32.9521 C   0  0  0  0  0  0  0  0  0  0  0  0
   42.2661   -2.9858   32.4658 C   0  0  0  0  0  0  0  0  0  0  0  0
   38.2054   -5.7866   33.3665 O   0  0  0  0  0  0  0  0  0  0  0  0
   43.9982   -3.4061   26.8491 C   0  0  0  0  0  0  0  0  0  0  0  0
   43.7221   -4.4936   24.6077 N   0  0  0  0  0  0  0  0  0  0  0  0
   43.5146   -2.0696   26.8199 C   0  0  0  0  0  0  0  0  0  0  0  0
   45.8691   -4.0725   25.4601 N   0  0  0  0  0  0  0  0  0  0  0  0
   42.9516   -1.4896   27.9464 C   0  0  0  0  0  0  0  0  0  0  0  0
   42.4703   -1.8684   30.2608 N   0  0  0  0  0  0  0  0  0  0  0  0
   42.9137   -2.2510   29.0881 C   0  0  0  0  0  0  0  0  0  0  0  0
   43.2241   -4.0034   30.4060 N   0  0  0  0  0  0  0  0  0  0  0  0
   43.3779   -3.5186   29.1641 C   0  0  0  0  0  0  0  0  0  0  0  0
   43.9264   -4.1487   28.0605 C   0  0  0  0  0  0  0  0  0  0  0  0
   40.5142   -6.0335   36.1005 C   0  0  0  0  0  0  0  0  0  0  0  0
   44.5802   -3.9978   25.6313 C   0  0  0  0  0  0  0  0  0  0  0  0
   41.3636   -7.2928   36.1917 C   0  0  0  0  0  0  0  0  0  0  0  0
   42.6498   -2.9502   31.0507 C   0  0  0  0  0  0  0  0  0  0  0  0
   42.4031   -7.4018   37.0933 O   0  0  0  0  0  0  0  0  0  0  0  0
   41.1767   -8.2375   35.3809 O   0  0  0  0  0  0  0  0  0  0  0  0
   40.3286   -5.4272   34.6582 C   0  0  1  0  0  0  0  0  0  0  0  0
   38.8771   -5.0999   34.3593 C   0  0  0  0  0  0  0  0  0  0  0  0
   38.2872   -4.1641   34.9579 O   0  0  0  0  0  0  0  0  0  0  0  0
   42.5464   -0.4830   35.8375 Br  0  0  0  0  0  0  0  0  0  0  0  0
   41.0802   -3.0640   36.1613 H   0  0  0  0  0  0  0  0  0  0  0  0
   41.3615   -4.9275   32.2809 H   0  0  0  0  0  0  0  0  0  0  0  0
   42.7227   -4.7304   24.7873 H   0  0  0  0  0  0  0  0  0  0  0  0
   44.1127   -4.7702   23.6794 H   0  0  0  0  0  0  0  0  0  0  0  0
   43.6096   -1.4336   25.9542 H   0  0  0  0  0  0  0  0  0  0  0  0
   46.5721   -3.6502   26.1009 H   0  0  0  0  0  0  0  0  0  0  0  0
   46.2577   -4.5133   24.5964 H   0  0  0  0  0  0  0  0  0  0  0  0
   42.5921   -0.4682   27.9334 H   0  0  0  0  0  0  0  0  0  0  0  0
   42.1599   -0.8957   30.4450 H   0  0  0  0  0  0  0  0  0  0  0  0
   44.2495   -5.1764   28.1435 H   0  0  0  0  0  0  0  0  0  0  0  0
   39.5217   -6.2834   36.5341 H   0  0  0  0  0  0  0  0  0  0  0  0
   40.9619   -5.3060   36.7975 H   0  0  0  0  0  0  0  0  0  0  0  0
   40.6210   -6.2181   33.9342 H   0  0  0  0  0  0  0  0  0  0  0  0
  2  1  1  0
  3  1  2  0
  4  3  1  0
  5  4  2  0
  6  5  1  0
  7  6  2  0
  7  1  1  0
 11  9  2  0
 13 11  1  0
 15 14  1  0
 15 13  2  0
 17 16  1  0
 17 15  1  0
 18  9  1  0
 18 17  2  0
 20 12  2  0
 20 10  1  0
 20  9  1  0
 21 19  1  0
 22 16  2  0
 22  7  1  0
 22 14  1  0
 23 21  1  0
 24 21  2  0
 25 19  1  0
 25  5  1  0
 26 25  1  0
 26  8  1  0
 27 26  2  0
 28  3  1  0
  4 29  1  0
  6 30  1  0
 10 31  1  0
 10 32  1  0
 11 33  1  0
 12 34  1  0
 12 35  1  0
 13 36  1  0
 14 37  1  0
 18 38  1  0
 19 39  1  0
 19 40  1  0
 25 41  1  6
M  CHG  4   2  -1   8  -1  12   1  23  -1
M  END
