
     RDKit          3D

 25 25  0  0  0  0  0  0  0  0999 V2000
   -4.5417    7.5251   12.6308 C   0  0  0  0  0  0  0  0  0  0  0  0
   -3.7485    6.5423   13.3698 N   0  0  0  0  0  0  0  0  0  0  0  0
   -3.5598    4.0584   14.5558 S   0  0  0  0  0  0  0  0  0  0  0  0
   -2.3490    6.8115   13.7077 C   0  0  0  0  0  0  0  0  0  0  0  0
   -5.3299    4.7058   12.8985 N   0  0  0  0  0  0  0  0  0  0  0  0
   -6.5858    1.2172   16.4133 O   0  0  0  0  0  0  0  0  0  0  0  0
   -5.1004    1.1267   16.2069 S   0  0  0  0  0  0  0  0  0  0  0  0
   -4.2753    5.2233   13.5789 C   0  0  0  0  0  0  0  0  0  0  0  0
   -5.5712    3.4219   13.1925 N   0  0  0  0  0  0  0  0  0  0  0  0
   -4.3914    2.0827   17.1188 O   0  0  0  0  0  0  0  0  0  0  0  0
   -4.7089    2.9177   14.1151 C   0  0  0  0  0  0  0  0  0  0  0  0
   -5.1682    0.6052   13.5171 N   0  0  0  0  0  0  0  0  0  0  0  0
   -4.5845    1.4856   14.5188 C   0  0  2  0  0  0  0  0  0  0  0  0
   -4.5789   -0.4576   16.5808 N   0  0  0  0  0  0  0  0  0  0  0  0
   -4.0080    8.4938   12.5332 H   0  0  0  0  0  0  0  0  0  0  0  0
   -4.7603    7.1424   11.6113 H   0  0  0  0  0  0  0  0  0  0  0  0
   -5.4979    7.7084   13.1646 H   0  0  0  0  0  0  0  0  0  0  0  0
   -1.8557    7.3409   12.8654 H   0  0  0  0  0  0  0  0  0  0  0  0
   -1.7867    5.8733   13.8981 H   0  0  0  0  0  0  0  0  0  0  0  0
   -2.2941    7.4393   14.6222 H   0  0  0  0  0  0  0  0  0  0  0  0
   -5.3797   -0.3187   13.9589 H   0  0  0  0  0  0  0  0  0  0  0  0
   -6.0790    1.0159   13.2078 H   0  0  0  0  0  0  0  0  0  0  0  0
   -3.4922    1.2726   14.5086 H   0  0  0  0  0  0  0  0  0  0  0  0
   -4.7808   -0.6157   17.5934 H   0  0  0  0  0  0  0  0  0  0  0  0
   -3.5395   -0.4725   16.4764 H   0  0  0  0  0  0  0  0  0  0  0  0
  2  1  1  0
  4  2  1  0
  7  6  2  0
  8  5  2  0
  8  3  1  0
  8  2  1  0
  9  5  1  0
 10  7  2  0
 11  9  2  0
 11  3  1  0
 13 12  1  0
 13 11  1  0
 13  7  1  0
  7 14  1  0
  1 15  1  0
  1 16  1  0
  1 17  1  0
  4 18  1  0
  4 19  1  0
  4 20  1  0
 12 21  1  0
 12 22  1  0
 13 23  1  1
 14 24  1  0
 14 25  1  0
M  END
