
     RDKit          3D

 25 25  0  0  0  0  0  0  0  0999 V2000
   -3.9418    7.5282   10.5122 C   0  0  0  0  0  0  0  0  0  0  0  0
   -3.0460    6.7362   11.3558 N   0  0  0  0  0  0  0  0  0  0  0  0
   -3.1792    4.8115   13.3279 S   0  0  0  0  0  0  0  0  0  0  0  0
   -1.6619    7.1590   11.5812 C   0  0  0  0  0  0  0  0  0  0  0  0
   -3.9827    4.4842   10.9729 N   0  0  0  0  0  0  0  0  0  0  0  0
   -6.4047    2.0936   14.6301 O   0  0  0  0  0  0  0  0  0  0  0  0
   -4.9875    2.1307   15.1274 S   0  0  0  0  0  0  0  0  0  0  0  0
   -3.4564    5.4312   11.7909 C   0  0  0  0  0  0  0  0  0  0  0  0
   -4.1907    3.3117   11.5852 N   0  0  0  0  0  0  0  0  0  0  0  0
   -4.7678    3.3474   15.9757 O   0  0  0  0  0  0  0  0  0  0  0  0
   -3.8339    3.3276   12.8973 C   0  0  0  0  0  0  0  0  0  0  0  0
   -3.6828    0.9049   13.0521 N   0  0  0  0  0  0  0  0  0  0  0  0
   -3.7614    2.1466   13.8080 C   0  0  2  0  0  0  0  0  0  0  0  0
   -4.6950    0.7474   16.0879 N   0  0  0  0  0  0  0  0  0  0  0  0
   -3.5251    8.5358   10.3036 H   0  0  0  0  0  0  0  0  0  0  0  0
   -4.1030    7.0093    9.5436 H   0  0  0  0  0  0  0  0  0  0  0  0
   -4.9184    7.6562   11.0247 H   0  0  0  0  0  0  0  0  0  0  0  0
   -1.4544    7.1951   12.6715 H   0  0  0  0  0  0  0  0  0  0  0  0
   -1.4698    8.1692   11.1629 H   0  0  0  0  0  0  0  0  0  0  0  0
   -0.9637    6.4448   11.0952 H   0  0  0  0  0  0  0  0  0  0  0  0
   -3.9770    0.1131   13.6684 H   0  0  0  0  0  0  0  0  0  0  0  0
   -4.3687    0.9548   12.2639 H   0  0  0  0  0  0  0  0  0  0  0  0
   -2.7853    2.2423   14.3339 H   0  0  0  0  0  0  0  0  0  0  0  0
   -3.8147    0.9253   16.6214 H   0  0  0  0  0  0  0  0  0  0  0  0
   -4.4956   -0.0441   15.4356 H   0  0  0  0  0  0  0  0  0  0  0  0
  2  1  1  0
  4  2  1  0
  7  6  2  0
  8  5  2  0
  8  3  1  0
  8  2  1  0
  9  5  1  0
 10  7  2  0
 11  9  2  0
 11  3  1  0
 13 12  1  0
 13 11  1  0
 13  7  1  0
  7 14  1  0
  1 15  1  0
  1 16  1  0
  1 17  1  0
  4 18  1  0
  4 19  1  0
  4 20  1  0
 12 21  1  0
 12 22  1  0
 13 23  1  1
 14 24  1  0
 14 25  1  0
M  END
