
     RDKit          3D

 27 26  0  0  0  0  0  0  0  0999 V2000
   26.5662    2.7011  -17.3135 P   0  0  2  0  0  0  0  0  0  0  0  0
   26.4243    0.0120  -18.1969 P   0  0  0  0  0  0  0  0  0  0  0  0
   25.2324    2.9321  -17.9853 O   0  0  0  0  0  0  0  0  0  0  0  0
   27.5966    3.9740  -17.6950 O   0  0  0  0  0  0  0  0  0  0  0  0
   27.3951    1.3454  -17.8726 O   0  0  0  0  0  0  0  0  0  0  0  0
   25.1658   -0.1269  -17.3726 O   0  0  0  0  0  0  0  0  0  0  0  0
   26.0432    0.0087  -19.8311 O   0  0  0  0  0  0  0  0  0  0  0  0
   27.4893   -1.2362  -17.8681 O   0  0  0  0  0  0  0  0  0  0  0  0
   30.5518    1.7396  -15.2550 C   0  0  0  0  0  0  0  0  0  0  0  0
   28.1147    1.1947  -14.8828 C   0  0  0  0  0  0  0  0  0  0  0  0
   27.5991    2.6064  -14.9787 C   0  0  0  0  0  0  0  0  0  0  0  0
   26.3457    2.6074  -15.6313 O   0  0  0  0  0  0  0  0  0  0  0  0
   29.4067    0.7964  -14.9695 C   0  0  0  0  0  0  0  0  0  0  0  0
   29.7097   -0.6712  -14.7912 C   0  0  0  0  0  0  0  0  0  0  0  0
   29.4529   -1.3517  -15.9878 O   0  0  0  0  0  0  0  0  0  0  0  0
   28.2418    4.0340  -16.9458 H   0  0  0  0  0  0  0  0  0  0  0  0
   25.5219    0.8389  -19.9713 H   0  0  0  0  0  0  0  0  0  0  0  0
   27.6069   -1.2183  -16.8847 H   0  0  0  0  0  0  0  0  0  0  0  0
   31.5269    1.2089  -15.2406 H   0  0  0  0  0  0  0  0  0  0  0  0
   30.4206    2.1930  -16.2600 H   0  0  0  0  0  0  0  0  0  0  0  0
   30.5761    2.5426  -14.4887 H   0  0  0  0  0  0  0  0  0  0  0  0
   27.3583    0.4429  -14.6690 H   0  0  0  0  0  0  0  0  0  0  0  0
   27.4406    2.9693  -13.9423 H   0  0  0  0  0  0  0  0  0  0  0  0
   28.3370    3.3037  -15.4291 H   0  0  0  0  0  0  0  0  0  0  0  0
   30.7788   -0.8013  -14.5115 H   0  0  0  0  0  0  0  0  0  0  0  0
   29.1011   -1.1074  -13.9663 H   0  0  0  0  0  0  0  0  0  0  0  0
   30.3280   -1.6991  -16.3013 H   0  0  0  0  0  0  0  0  0  0  0  0
  3  1  2  0
  1  4  1  1
  5  2  1  0
  5  1  1  0
  6  2  2  0
  7  2  1  0
  8  2  1  0
 11 10  1  0
 12  1  1  0
 12 11  1  0
 13 10  2  3
 13  9  1  0
 14 13  1  0
 15 14  1  0
  4 16  1  0
  7 17  1  0
  8 18  1  0
  9 19  1  0
  9 20  1  0
  9 21  1  0
 10 22  1  0
 11 23  1  0
 11 24  1  0
 14 25  1  0
 14 26  1  0
 15 27  1  0
M  END
