
     RDKit          3D

 27 26  0  0  0  0  0  0  0  0999 V2000
   36.5019    0.9194   15.9896 P   0  0  2  0  0  0  0  0  0  0  0  0
   36.6790   -1.8890   16.3071 P   0  0  0  0  0  0  0  0  0  0  0  0
   37.7269    1.0600   16.8669 O   0  0  0  0  0  0  0  0  0  0  0  0
   35.3150    1.9909   16.4911 O   0  0  0  0  0  0  0  0  0  0  0  0
   35.6948   -0.5529   16.0720 O   0  0  0  0  0  0  0  0  0  0  0  0
   38.0394   -1.8400   15.6487 O   0  0  0  0  0  0  0  0  0  0  0  0
   36.8550   -2.1315   17.9503 O   0  0  0  0  0  0  0  0  0  0  0  0
   35.7182   -3.1017   15.6640 O   0  0  0  0  0  0  0  0  0  0  0  0
   32.9556    0.2290   13.4462 C   0  0  0  0  0  0  0  0  0  0  0  0
   35.4049   -0.1850   13.1658 C   0  0  0  0  0  0  0  0  0  0  0  0
   35.7725    1.2288   13.5623 C   0  0  0  0  0  0  0  0  0  0  0  0
   36.9229    1.2493   14.3817 O   0  0  0  0  0  0  0  0  0  0  0  0
   34.1331   -0.6375   13.0796 C   0  0  0  0  0  0  0  0  0  0  0  0
   33.8694   -2.0580   12.6453 C   0  0  0  0  0  0  0  0  0  0  0  0
   33.8079   -2.8761   13.7803 O   0  0  0  0  0  0  0  0  0  0  0  0
   34.4773    1.6507   16.0863 H   0  0  0  0  0  0  0  0  0  0  0  0
   37.3484   -1.3365   18.2745 H   0  0  0  0  0  0  0  0  0  0  0  0
   35.0869   -3.3392   16.3893 H   0  0  0  0  0  0  0  0  0  0  0  0
   31.9983   -0.3097   13.2825 H   0  0  0  0  0  0  0  0  0  0  0  0
   33.0091    0.5072   14.5199 H   0  0  0  0  0  0  0  0  0  0  0  0
   32.9474    1.1458   12.8196 H   0  0  0  0  0  0  0  0  0  0  0  0
   36.2234   -0.8476   12.8967 H   0  0  0  0  0  0  0  0  0  0  0  0
   36.0146    1.7765   12.6282 H   0  0  0  0  0  0  0  0  0  0  0  0
   34.9287    1.7870   14.0213 H   0  0  0  0  0  0  0  0  0  0  0  0
   32.9044   -2.1039   12.0933 H   0  0  0  0  0  0  0  0  0  0  0  0
   34.6683   -2.4230   11.9605 H   0  0  0  0  0  0  0  0  0  0  0  0
   32.8810   -2.7982   14.1262 H   0  0  0  0  0  0  0  0  0  0  0  0
  3  1  2  0
  1  4  1  1
  5  1  1  0
  5  2  1  0
  6  2  2  0
  7  2  1  0
  8  2  1  0
 11 10  1  0
 12 11  1  0
 12  1  1  0
 13  9  1  0
 13 10  2  3
 14 13  1  0
 15 14  1  0
  4 16  1  0
  7 17  1  0
  8 18  1  0
  9 19  1  0
  9 20  1  0
  9 21  1  0
 10 22  1  0
 11 23  1  0
 11 24  1  0
 14 25  1  0
 14 26  1  0
 15 27  1  0
M  END
