
     RDKit          3D

 56 58  0  0  0  0  0  0  0  0999 V2000
   33.9045   36.8357   43.6528 P   0  0  1  0  0  0  0  0  0  0  0  0
   35.3219   36.5906   43.2150 O   0  0  0  0  0  0  0  0  0  0  0  0
   33.5987   38.4811   43.7934 O   0  0  0  0  0  0  0  0  0  0  0  0
   31.5837   36.3648   42.8947 C   0  0  0  0  0  0  0  0  0  0  0  0
   32.9003   36.2058   42.4699 O   0  0  0  0  0  0  0  0  0  0  0  0
   30.7239   35.5176   41.9732 C   0  0  1  0  0  0  0  0  0  0  0  0
   30.8515   35.9980   40.6435 O   0  0  0  0  0  0  0  0  0  0  0  0
   31.1543   34.0348   42.0018 C   0  0  1  0  0  0  0  0  0  0  0  0
   30.0320   33.1912   42.0896 O   0  0  0  0  0  0  0  0  0  0  0  0
   31.8905   33.8808   40.6933 C   0  0  1  0  0  0  0  0  0  0  0  0
   31.8461   32.5749   40.1787 O   0  0  0  0  0  0  0  0  0  0  0  0
   31.1415   34.8792   39.8330 C   0  0  2  0  0  0  0  0  0  0  0  0
   31.3803   34.9547   34.6961 N   0  0  0  0  0  0  0  0  0  0  0  0
   30.3593   34.5128   35.5014 C   0  0  0  0  0  0  0  0  0  0  0  0
   30.4681   34.5789   36.8642 N   0  0  0  0  0  0  0  0  0  0  0  0
   31.6164   35.0948   37.3799 C   0  0  0  0  0  0  0  0  0  0  0  0
   32.6418   35.5353   36.6083 C   0  0  0  0  0  0  0  0  0  0  0  0
   32.5334   35.4700   35.2207 C   0  0  0  0  0  0  0  0  0  0  0  0
   33.5744   35.9208   34.3614 N   0  0  0  0  0  0  0  0  0  0  0  0
   33.6523   35.9963   37.3763 N   0  0  0  0  0  0  0  0  0  0  0  0
   33.1771   35.8128   38.6376 C   0  0  0  0  0  0  0  0  0  0  0  0
   31.9337   35.2639   38.6701 N   0  0  0  0  0  0  0  0  0  0  0  0
   33.2207   34.8269   45.4851 C   0  0  0  0  0  0  0  0  0  0  0  0
   32.7620   34.0697   44.5861 O   0  0  0  0  0  0  0  0  0  0  0  0
   33.3209   34.3286   46.9175 C   0  0  1  0  0  0  0  0  0  0  0  0
   33.6293   36.1439   45.1974 O   0  0  0  0  0  0  0  0  0  0  0  0
   32.0892   34.6989   47.8249 C   0  0  0  0  0  0  0  0  0  0  0  0
   33.5917   32.9408   46.9509 O   0  0  0  0  0  0  0  0  0  0  0  0
   31.8209   36.2271   47.8031 C   0  0  0  0  0  0  0  0  0  0  0  0
   33.5411   34.9060   49.7744 O   0  0  0  0  0  0  0  0  0  0  0  0
   30.8071   33.9636   47.3555 C   0  0  0  0  0  0  0  0  0  0  0  0
   32.3895   34.2673   49.2854 C   0  0  0  0  0  0  0  0  0  0  0  0
   34.0309   38.7467   44.6440 H   0  0  0  0  0  0  0  0  0  0  0  0
   31.4126   36.0072   43.9367 H   0  0  0  0  0  0  0  0  0  0  0  0
   31.2722   37.4301   42.8082 H   0  0  0  0  0  0  0  0  0  0  0  0
   29.6639   35.6250   42.2951 H   0  0  0  0  0  0  0  0  0  0  0  0
   31.8240   33.7941   42.8474 H   0  0  0  0  0  0  0  0  0  0  0  0
   30.2506   32.4176   42.6709 H   0  0  0  0  0  0  0  0  0  0  0  0
   32.9510   34.1902   40.8408 H   0  0  0  0  0  0  0  0  0  0  0  0
   32.4496   32.5632   39.3908 H   0  0  0  0  0  0  0  0  0  0  0  0
   30.1793   34.4372   39.4869 H   0  0  0  0  0  0  0  0  0  0  0  0
   29.4609   34.1097   35.0547 H   0  0  0  0  0  0  0  0  0  0  0  0
   33.4634   35.8597   33.3251 H   0  0  0  0  0  0  0  0  0  0  0  0
   34.4589   36.3167   34.7508 H   0  0  0  0  0  0  0  0  0  0  0  0
   33.7387   36.0794   39.5235 H   0  0  0  0  0  0  0  0  0  0  0  0
   34.2161   34.8330   47.3412 H   0  0  0  0  0  0  0  0  0  0  0  0
   32.8778   32.4655   46.4542 H   0  0  0  0  0  0  0  0  0  0  0  0
   30.7637   36.4469   48.0619 H   0  0  0  0  0  0  0  0  0  0  0  0
   32.0291   36.6490   46.7966 H   0  0  0  0  0  0  0  0  0  0  0  0
   32.4646   36.7509   48.5423 H   0  0  0  0  0  0  0  0  0  0  0  0
   33.6639   34.5807   50.7039 H   0  0  0  0  0  0  0  0  0  0  0  0
   29.9184   34.6278   47.3907 H   0  0  0  0  0  0  0  0  0  0  0  0
   30.9208   33.6205   46.3044 H   0  0  0  0  0  0  0  0  0  0  0  0
   30.6111   33.0701   47.9854 H   0  0  0  0  0  0  0  0  0  0  0  0
   31.5237   34.5210   49.9391 H   0  0  0  0  0  0  0  0  0  0  0  0
   32.5330   33.1640   49.3346 H   0  0  0  0  0  0  0  0  0  0  0  0
  2  1  2  0
  1  3  1  1
  5  4  1  0
  5  1  1  0
  6  4  1  0
  7  6  1  0
  8  6  1  0
  8  9  1  0
 10  8  1  0
 10 11  1  0
 12 10  1  0
 12  7  1  0
 14 13  2  0
 15 14  1  0
 16 15  2  0
 17 16  1  0
 18 17  2  0
 18 13  1  0
 19 18  1  0
 20 17  1  0
 21 20  2  0
 22 16  1  0
 12 22  1  0
 22 21  1  0
 24 23  2  0
 25 23  1  0
 26 23  1  0
 26  1  1  0
 27 25  1  0
 25 28  1  0
 27 29  1  0
 31 27  1  0
 32 27  1  0
 32 30  1  0
  3 33  1  0
  4 34  1  0
  4 35  1  0
  6 36  1  1
  8 37  1  1
  9 38  1  0
 10 39  1  1
 11 40  1  0
 12 41  1  6
 14 42  1  0
 19 43  1  0
 19 44  1  0
 21 45  1  0
 25 46  1  1
 28 47  1  0
 29 48  1  0
 29 49  1  0
 29 50  1  0
 30 51  1  0
 31 52  1  0
 31 53  1  0
 31 54  1  0
 32 55  1  0
 32 56  1  0
M  END
