
     RDKit          3D

 32 34  0  0  0  0  0  0  0  0999 V2000
   36.9796   26.6667   11.9202 C   0  0  0  0  0  0  0  0  0  0  0  0
   36.2682   26.0894   12.9836 O   0  0  0  0  0  0  0  0  0  0  0  0
   36.0104   27.3409   10.9316 C   0  0  1  0  0  0  0  0  0  0  0  0
   34.8175   27.7188   11.5824 O   0  0  0  0  0  0  0  0  0  0  0  0
   36.6093   28.5826   10.2780 C   0  0  1  0  0  0  0  0  0  0  0  0
   36.1538   28.6824    8.9503 O   0  0  0  0  0  0  0  0  0  0  0  0
   36.0789   29.7177   11.1497 C   0  0  1  0  0  0  0  0  0  0  0  0
   35.6624   30.8433   10.4167 O   0  0  0  0  0  0  0  0  0  0  0  0
   34.9170   29.0765   11.9436 C   0  0  2  0  0  0  0  0  0  0  0  0
   37.8345   29.6274   16.2536 N   0  0  0  0  0  0  0  0  0  0  0  0
   38.2207   29.8168   14.9568 C   0  0  0  0  0  0  0  0  0  0  0  0
   37.3274   29.6648   13.9413 N   0  0  0  0  0  0  0  0  0  0  0  0
   36.0480   29.3349   14.2453 C   0  0  0  0  0  0  0  0  0  0  0  0
   35.6402   29.1398   15.5212 C   0  0  0  0  0  0  0  0  0  0  0  0
   36.5517   29.2854   16.5652 C   0  0  0  0  0  0  0  0  0  0  0  0
   36.1789   29.0896   17.9219 N   0  0  0  0  0  0  0  0  0  0  0  0
   34.3354   28.8033   15.5600 N   0  0  0  0  0  0  0  0  0  0  0  0
   33.9868   28.8140   14.2469 C   0  0  0  0  0  0  0  0  0  0  0  0
   35.0070   29.1544   13.4100 N   0  0  0  0  0  0  0  0  0  0  0  0
   37.7331   27.3871   12.3020 H   0  0  0  0  0  0  0  0  0  0  0  0
   37.5334   25.8620   11.3912 H   0  0  0  0  0  0  0  0  0  0  0  0
   36.3063   26.7354   13.7366 H   0  0  0  0  0  0  0  0  0  0  0  0
   35.7572   26.5885   10.1519 H   0  0  0  0  0  0  0  0  0  0  0  0
   37.7258   28.5687   10.2939 H   0  0  0  0  0  0  0  0  0  0  0  0
   35.3895   29.3162    8.9582 H   0  0  0  0  0  0  0  0  0  0  0  0
   36.9104   30.0683   11.7640 H   0  0  0  0  0  0  0  0  0  0  0  0
   36.4630   31.2715   10.0149 H   0  0  0  0  0  0  0  0  0  0  0  0
   33.9628   29.5631   11.6439 H   0  0  0  0  0  0  0  0  0  0  0  0
   39.2447   30.0837   14.7351 H   0  0  0  0  0  0  0  0  0  0  0  0
   36.8829   28.7574   18.6177 H   0  0  0  0  0  0  0  0  0  0  0  0
   35.2023   29.2733   18.2427 H   0  0  0  0  0  0  0  0  0  0  0  0
   32.9941   28.5541   13.9018 H   0  0  0  0  0  0  0  0  0  0  0  0
  2  1  1  0
  3  1  1  0
  4  3  1  0
  5  3  1  0
  5  6  1  0
  7  5  1  0
  7  8  1  0
  9  7  1  0
  9  4  1  0
 11 10  2  0
 12 11  1  0
 13 12  2  0
 14 13  1  0
 15 14  2  0
 15 10  1  0
 16 15  1  0
 17 14  1  0
 18 17  2  0
 19 18  1  0
 19 13  1  0
  9 19  1  0
  1 20  1  0
  1 21  1  0
  2 22  1  0
  3 23  1  6
  5 24  1  6
  6 25  1  0
  7 26  1  1
  8 27  1  0
  9 28  1  6
 11 29  1  0
 16 30  1  0
 16 31  1  0
 18 32  1  0
M  END
