
     RDKit          3D

 59 61  0  0  0  0  0  0  0  0999 V2000
   97.6798    6.1663   29.4191 P   0  0  1  0  0  0  0  0  0  0  0  0
   99.4660    5.1372   27.4482 P   0  0  2  0  0  0  0  0  0  0  0  0
   99.9333    5.6153   22.2949 C   0  0  0  0  0  0  0  0  0  0  0  0
   98.9416    5.5112   23.4150 C   0  0  1  0  0  0  0  0  0  0  0  0
   99.1716    6.5118   24.4080 O   0  0  0  0  0  0  0  0  0  0  0  0
   97.5531    5.6610   22.7944 C   0  0  1  0  0  0  0  0  0  0  0  0
   97.3629    4.6663   21.8176 O   0  0  0  0  0  0  0  0  0  0  0  0
   96.5211    5.5091   23.9044 C   0  0  2  0  0  0  0  0  0  0  0  0
   95.2229    5.6829   23.4012 O   0  0  0  0  0  0  0  0  0  0  0  0
   96.8102    6.5283   25.0254 C   0  0  1  0  0  0  0  0  0  0  0  0
   95.9081    6.3453   26.0885 O   0  0  0  0  0  0  0  0  0  0  0  0
   98.2645    6.4040   25.5130 C   0  0  1  0  0  0  0  0  0  0  0  0
   98.4361    9.4198   33.2526 C   0  0  1  0  0  0  0  0  0  0  0  0
   97.0166    9.7034   33.5558 N   0  0  0  0  0  0  0  0  0  0  0  0
   97.1556    7.0761   28.3361 O   0  0  0  0  0  0  0  0  0  0  0  0
  100.2165    3.8383   27.2909 O   0  0  0  0  0  0  0  0  0  0  0  0
   96.0202    9.3664   32.6700 C   0  0  0  0  0  0  0  0  0  0  0  0
   98.8501    7.9792   33.5511 C   0  0  2  0  0  0  0  0  0  0  0  0
   96.2948    8.8629   31.5476 O   0  0  0  0  0  0  0  0  0  0  0  0
   96.4297    5.3023   30.1314 O   0  0  0  0  0  0  0  0  0  0  0  0
  100.5354    6.4362   27.4240 O   0  0  0  0  0  0  0  0  0  0  0  0
   99.1198    7.7337   34.9123 O   0  0  0  0  0  0  0  0  0  0  0  0
  100.0743    7.8367   32.6621 C   0  0  2  0  0  0  0  0  0  0  0  0
   94.7153    9.5558   32.9974 N   0  0  0  0  0  0  0  0  0  0  0  0
   98.7430    4.9451   28.9584 O   0  0  0  0  0  0  0  0  0  0  0  0
   98.3632    5.1544   26.1659 O   0  0  0  0  0  0  0  0  0  0  0  0
  101.2219    8.2976   33.3280 O   0  0  0  0  0  0  0  0  0  0  0  0
   94.3620   10.0654   34.2025 C   0  0  0  0  0  0  0  0  0  0  0  0
   99.7383    8.7792   31.4845 C   0  0  2  0  0  0  0  0  0  0  0  0
   93.1457   10.2256   34.4813 O   0  0  0  0  0  0  0  0  0  0  0  0
   98.6842    9.6415   31.8824 O   0  0  0  0  0  0  0  0  0  0  0  0
   95.3446   10.4114   35.1252 C   0  0  0  0  0  0  0  0  0  0  0  0
   99.2948    7.9920   30.2402 C   0  0  0  0  0  0  0  0  0  0  0  0
   98.3736    7.0339   30.6836 O   0  0  0  0  0  0  0  0  0  0  0  0
   96.6797   10.2153   34.7798 C   0  0  0  0  0  0  0  0  0  0  0  0
  100.5127    4.5789   21.8740 O   0  0  0  0  0  0  0  0  0  0  0  0
  100.0995    6.8159   21.6248 O   0  0  0  0  0  0  0  0  0  0  0  0
   99.0488    4.4970   23.8667 H   0  0  0  0  0  0  0  0  0  0  0  0
   97.4652    6.6757   22.3345 H   0  0  0  0  0  0  0  0  0  0  0  0
   96.8748    3.9215   22.2565 H   0  0  0  0  0  0  0  0  0  0  0  0
   96.5878    4.4754   24.3129 H   0  0  0  0  0  0  0  0  0  0  0  0
   95.1577    6.6032   23.0331 H   0  0  0  0  0  0  0  0  0  0  0  0
   96.6685    7.5577   24.6274 H   0  0  0  0  0  0  0  0  0  0  0  0
   95.3987    5.5067   25.9360 H   0  0  0  0  0  0  0  0  0  0  0  0
   98.4533    7.2571   26.2011 H   0  0  0  0  0  0  0  0  0  0  0  0
   99.1067   10.1106   33.8122 H   0  0  0  0  0  0  0  0  0  0  0  0
   98.0662    7.2671   33.2168 H   0  0  0  0  0  0  0  0  0  0  0  0
   95.8259    5.9926   30.5058 H   0  0  0  0  0  0  0  0  0  0  0  0
  101.0698    6.3111   26.5996 H   0  0  0  0  0  0  0  0  0  0  0  0
   99.6762    8.4747   35.2671 H   0  0  0  0  0  0  0  0  0  0  0  0
  100.2168    6.7719   32.3608 H   0  0  0  0  0  0  0  0  0  0  0  0
   93.9693    9.2955   32.3118 H   0  0  0  0  0  0  0  0  0  0  0  0
  101.9989    8.0161   32.7777 H   0  0  0  0  0  0  0  0  0  0  0  0
  100.6209    9.3982   31.2092 H   0  0  0  0  0  0  0  0  0  0  0  0
   95.0821   10.8147   36.0955 H   0  0  0  0  0  0  0  0  0  0  0  0
  100.1812    7.4914   29.7944 H   0  0  0  0  0  0  0  0  0  0  0  0
   98.8404    8.6914   29.5031 H   0  0  0  0  0  0  0  0  0  0  0  0
   97.4439   10.4562   35.5088 H   0  0  0  0  0  0  0  0  0  0  0  0
  100.4199    7.6439   22.1127 H   0  0  0  0  0  0  0  0  0  0  0  0
  4  3  1  0
  5  4  1  0
  6  4  1  0
  6  7  1  0
  8  6  1  0
  8  9  1  0
 10  8  1  0
 10 11  1  0
 12 10  1  0
 12  5  1  0
 13 14  1  0
 15  1  2  0
 16  2  2  0
 17 14  1  0
 18 13  1  0
 19 17  2  0
  1 20  1  1
  2 21  1  1
 18 22  1  0
 23 18  1  0
 24 17  1  0
 25  1  1  0
 25  2  1  0
 12 26  1  0
 26  2  1  0
 23 27  1  0
 28 24  1  0
 29 23  1  0
 30 28  2  0
 31 13  1  0
 31 29  1  0
 32 28  1  0
 29 33  1  0
 34  1  1  0
 34 33  1  0
 35 32  2  0
 35 14  1  0
 36  3  2  0
 37  3  1  0
  4 38  1  1
  6 39  1  6
  7 40  1  0
  8 41  1  1
  9 42  1  0
 10 43  1  6
 11 44  1  0
 12 45  1  1
 13 46  1  1
 18 47  1  6
 20 48  1  0
 21 49  1  0
 22 50  1  0
 23 51  1  6
 24 52  1  0
 27 53  1  0
 29 54  1  6
 32 55  1  0
 33 56  1  0
 33 57  1  0
 35 58  1  0
 37 59  1  0
M  END
