
     RDKit          3D

 25 24  0  0  0  0  0  0  0  0999 V2000
   19.0423  -11.2514   14.5024 P   0  0  0  0  0  0  0  0  0  0  0  0
   19.2104  -12.5597   15.2451 O   0  0  0  0  0  0  0  0  0  0  0  0
   18.3438  -10.1022   15.4997 O   0  0  0  0  0  0  0  0  0  0  0  0
   18.0631  -11.4797   13.1617 O   0  0  0  0  0  0  0  0  0  0  0  0
   24.3711   -7.2638   12.0793 C   0  0  0  0  0  0  0  0  0  0  0  0
   25.5375   -6.8786   12.1019 O   0  0  0  0  0  0  0  0  0  0  0  0
   23.4562   -6.8056   13.1849 C   0  0  2  0  0  0  0  0  0  0  0  0
   24.0703   -7.1541   14.3981 O   0  0  0  0  0  0  0  0  0  0  0  0
   21.9855   -7.3423   13.1197 C   0  0  2  0  0  0  0  0  0  0  0  0
   21.1440   -6.5513   13.9404 O   0  0  0  0  0  0  0  0  0  0  0  0
   21.8877   -8.8431   13.5047 C   0  0  2  0  0  0  0  0  0  0  0  0
   22.7065   -9.6066   12.6542 O   0  0  0  0  0  0  0  0  0  0  0  0
   20.4752   -9.4273   13.4285 C   0  0  0  0  0  0  0  0  0  0  0  0
   20.5635  -10.7045   14.0209 O   0  0  0  0  0  0  0  0  0  0  0  0
   17.4387  -10.4536   15.6952 H   0  0  0  0  0  0  0  0  0  0  0  0
   17.6779  -10.5865   12.9751 H   0  0  0  0  0  0  0  0  0  0  0  0
   24.0253   -7.9121   11.2809 H   0  0  0  0  0  0  0  0  0  0  0  0
   23.4116   -5.6940   13.0974 H   0  0  0  0  0  0  0  0  0  0  0  0
   23.7502   -6.5103   15.0825 H   0  0  0  0  0  0  0  0  0  0  0  0
   21.6234   -7.2289   12.0744 H   0  0  0  0  0  0  0  0  0  0  0  0
   20.8809   -5.7506   13.4165 H   0  0  0  0  0  0  0  0  0  0  0  0
   22.2365   -8.9408   14.5617 H   0  0  0  0  0  0  0  0  0  0  0  0
   23.5795   -9.1385   12.5833 H   0  0  0  0  0  0  0  0  0  0  0  0
   20.1488   -9.4997   12.3665 H   0  0  0  0  0  0  0  0  0  0  0  0
   19.7790   -8.7747   14.0006 H   0  0  0  0  0  0  0  0  0  0  0  0
  2  1  2  0
  3  1  1  0
  4  1  1  0
  6  5  2  0
  7  5  1  0
  7  8  1  0
  9  7  1  0
  9 10  1  0
 11  9  1  0
 11 12  1  0
 13 11  1  0
 14 13  1  0
 14  1  1  0
  3 15  1  0
  4 16  1  0
  5 17  1  0
  7 18  1  1
  8 19  1  0
  9 20  1  6
 10 21  1  0
 11 22  1  1
 12 23  1  0
 13 24  1  0
 13 25  1  0
M  END
