
     RDKit          3D

 32 33  0  0  0  0  0  0  0  0999 V2000
   14.3413    2.8610   49.4370 N   0  0  0  0  0  0  0  0  0  0  0  0
   14.4368    2.4407   50.7226 C   0  0  0  0  0  0  0  0  0  0  0  0
   13.3391    1.7755   51.3273 N   0  0  0  0  0  0  0  0  0  0  0  0
   15.5788    2.6586   51.4330 N   0  0  0  0  0  0  0  0  0  0  0  0
   16.6400    3.3053   50.8811 C   0  0  0  0  0  0  0  0  0  0  0  0
   16.5492    3.7581   49.5622 C   0  0  0  0  0  0  0  0  0  0  0  0
   17.6816    3.5014   51.5664 O   0  0  0  0  0  0  0  0  0  0  0  0
   17.6018    4.5011   48.9443 N   0  0  0  0  0  0  0  0  0  0  0  0
   17.2732    5.3616   47.8035 C   0  0  2  0  0  0  0  0  0  0  0  0
   16.3710    4.5927   46.8081 C   0  0  0  0  0  0  0  0  0  0  0  0
   15.3722    3.5087   48.8453 C   0  0  0  0  0  0  0  0  0  0  0  0
   15.2489    3.9600   47.4991 N   0  0  0  0  0  0  0  0  0  0  0  0
   18.5711    5.9087   47.1681 C   0  0  1  0  0  0  0  0  0  0  0  0
   18.4234    5.9919   45.7717 O   0  0  0  0  0  0  0  0  0  0  0  0
   18.9757    7.2796   47.7458 C   0  0  1  0  0  0  0  0  0  0  0  0
   19.0083    7.1917   49.1485 O   0  0  0  0  0  0  0  0  0  0  0  0
   20.3509    7.7065   47.2309 C   0  0  0  0  0  0  0  0  0  0  0  0
   12.3931    2.2169   51.3514 H   0  0  0  0  0  0  0  0  0  0  0  0
   13.4661    0.8324   51.7572 H   0  0  0  0  0  0  0  0  0  0  0  0
   15.6413    2.3271   52.4226 H   0  0  0  0  0  0  0  0  0  0  0  0
   18.5504    4.5339   49.3831 H   0  0  0  0  0  0  0  0  0  0  0  0
   16.6833    6.2214   48.1930 H   0  0  0  0  0  0  0  0  0  0  0  0
   15.9649    5.2868   46.0426 H   0  0  0  0  0  0  0  0  0  0  0  0
   16.9621    3.8053   46.2931 H   0  0  0  0  0  0  0  0  0  0  0  0
   14.3732    3.7572   46.9664 H   0  0  0  0  0  0  0  0  0  0  0  0
   19.3773    5.1767   47.4215 H   0  0  0  0  0  0  0  0  0  0  0  0
   18.2608    6.9450   45.5464 H   0  0  0  0  0  0  0  0  0  0  0  0
   18.2365    8.0490   47.4233 H   0  0  0  0  0  0  0  0  0  0  0  0
   18.8844    8.1132   49.4971 H   0  0  0  0  0  0  0  0  0  0  0  0
   20.2488    8.3519   46.3323 H   0  0  0  0  0  0  0  0  0  0  0  0
   20.9444    6.8089   46.9556 H   0  0  0  0  0  0  0  0  0  0  0  0
   20.9091    8.2580   48.0166 H   0  0  0  0  0  0  0  0  0  0  0  0
  2  1  2  0
  3  2  1  0
  4  2  1  0
  5  4  1  0
  6  5  1  0
  7  5  2  0
  8  6  1  0
  9  8  1  0
  9 10  1  0
 11  1  1  0
 11  6  2  0
 12 11  1  0
 12 10  1  0
 13  9  1  0
 13 14  1  0
 15 13  1  0
 16 15  1  0
 15 17  1  0
  3 18  1  0
  3 19  1  0
  4 20  1  0
  8 21  1  0
  9 22  1  1
 10 23  1  0
 10 24  1  0
 12 25  1  0
 13 26  1  6
 14 27  1  0
 15 28  1  1
 16 29  1  0
 17 30  1  0
 17 31  1  0
 17 32  1  0
M  END
