
     RDKit          3D

 49 52  0  0  0  0  0  0  0  0999 V2000
   53.7359   36.0550   -0.0624 C   0  0  0  0  0  0  0  0  0  0  0  0
   53.7515   37.3074    0.5310 C   0  0  0  0  0  0  0  0  0  0  0  0
   52.6503   37.8407    1.1155 C   0  0  0  0  0  0  0  0  0  0  0  0
   51.4323   37.1740    1.1332 C   0  0  0  0  0  0  0  0  0  0  0  0
   54.8311   38.1359    0.7442 O   0  0  0  0  0  0  0  0  0  0  0  0
   51.3683   35.9020    0.5362 C   0  0  0  0  0  0  0  0  0  0  0  0
   52.5222   35.3342   -0.0658 C   0  0  0  0  0  0  0  0  0  0  0  0
   52.9927   39.0234    1.7354 O   0  0  0  0  0  0  0  0  0  0  0  0
   56.9970   33.7905   -4.9350 N   0  0  0  0  0  0  0  0  0  0  0  0
   56.2894   34.8380   -5.4565 C   0  0  0  0  0  0  0  0  0  0  0  0
   55.1242   35.2449   -4.8719 N   0  0  0  0  0  0  0  0  0  0  0  0
   54.6941   34.5809   -3.7713 C   0  0  0  0  0  0  0  0  0  0  0  0
   55.3735   33.5427   -3.2396 C   0  0  0  0  0  0  0  0  0  0  0  0
   56.5618   33.1252   -3.8271 C   0  0  0  0  0  0  0  0  0  0  0  0
   57.3131   32.0398   -3.3051 N   0  0  0  0  0  0  0  0  0  0  0  0
   54.7360   33.0687   -2.1527 N   0  0  0  0  0  0  0  0  0  0  0  0
   53.6439   33.8746   -2.0689 C   0  0  0  0  0  0  0  0  0  0  0  0
   53.5976   34.8219   -3.0398 N   0  0  0  0  0  0  0  0  0  0  0  0
   52.6099   35.8799   -3.2373 C   0  0  0  0  0  0  0  0  0  0  0  0
   51.5384   35.4137   -4.2084 C   0  0  0  0  0  0  0  0  0  0  0  0
   50.1350   35.8845   -3.7880 C   0  0  0  0  0  0  0  0  0  0  0  0
   49.1637   35.2576   -4.6878 N   0  0  0  0  0  0  0  0  0  0  0  0
   48.1774   34.3062   -4.1428 C   0  0  0  0  0  0  0  0  0  0  0  0
   46.7522   34.7123   -4.4580 C   0  0  0  0  0  0  0  0  0  0  0  0
   48.4378   33.6792   -2.7832 C   0  0  0  0  0  0  0  0  0  0  0  0
   54.4208   39.1142    1.7031 C   0  0  0  0  0  0  0  0  0  0  0  0
   49.7171   34.9386    0.6196 Br  0  0  0  0  0  0  0  0  0  0  0  0
   52.4209   33.6786   -0.7732 S   0  0  0  0  0  0  0  0  0  0  0  0
   54.6532   35.6442   -0.4597 H   0  0  0  0  0  0  0  0  0  0  0  0
   50.5724   37.6073    1.6270 H   0  0  0  0  0  0  0  0  0  0  0  0
   56.6561   35.3490   -6.3359 H   0  0  0  0  0  0  0  0  0  0  0  0
   57.0875   31.0542   -3.5666 H   0  0  0  0  0  0  0  0  0  0  0  0
   58.1053   32.2170   -2.6484 H   0  0  0  0  0  0  0  0  0  0  0  0
   53.1172   36.7838   -3.6402 H   0  0  0  0  0  0  0  0  0  0  0  0
   52.1403   36.1660   -2.2748 H   0  0  0  0  0  0  0  0  0  0  0  0
   51.7713   35.8227   -5.2168 H   0  0  0  0  0  0  0  0  0  0  0  0
   51.5588   34.3031   -4.2688 H   0  0  0  0  0  0  0  0  0  0  0  0
   49.9562   35.5783   -2.7349 H   0  0  0  0  0  0  0  0  0  0  0  0
   50.0536   36.9896   -3.8767 H   0  0  0  0  0  0  0  0  0  0  0  0
   49.6885   34.7842   -5.4636 H   0  0  0  0  0  0  0  0  0  0  0  0
   48.2677   33.3975   -4.7878 H   0  0  0  0  0  0  0  0  0  0  0  0
   46.0448   33.8910   -4.2119 H   0  0  0  0  0  0  0  0  0  0  0  0
   46.4822   35.6072   -3.8589 H   0  0  0  0  0  0  0  0  0  0  0  0
   46.6495   34.9604   -5.5366 H   0  0  0  0  0  0  0  0  0  0  0  0
   47.6701   32.9079   -2.5576 H   0  0  0  0  0  0  0  0  0  0  0  0
   49.4354   33.1907   -2.7613 H   0  0  0  0  0  0  0  0  0  0  0  0
   48.3929   34.4585   -1.9939 H   0  0  0  0  0  0  0  0  0  0  0  0
   54.7389   40.1285    1.3842 H   0  0  0  0  0  0  0  0  0  0  0  0
   54.8397   38.8660    2.7019 H   0  0  0  0  0  0  0  0  0  0  0  0
  2  1  2  0
  3  2  1  0
  4  3  2  0
  5  2  1  0
  6  4  1  0
  7  6  2  0
  7  1  1  0
  8  3  1  0
 10  9  2  0
 11 10  1  0
 12 11  2  0
 13 12  1  0
 14  9  1  0
 14 13  2  0
 15 14  1  0
 16 13  1  0
 17 16  2  0
 18 17  1  0
 18 12  1  0
 19 18  1  0
 20 19  1  0
 21 20  1  0
 22 21  1  0
 23 22  1  0
 23 24  1  0
 25 23  1  0
 26  8  1  0
 26  5  1  0
 27  6  1  0
 28 17  1  0
 28  7  1  0
  1 29  1  0
  4 30  1  0
 10 31  1  0
 15 32  1  0
 15 33  1  0
 19 34  1  0
 19 35  1  0
 20 36  1  0
 20 37  1  0
 21 38  1  0
 21 39  1  0
 22 40  1  0
 23 41  1  0
 24 42  1  0
 24 43  1  0
 24 44  1  0
 25 45  1  0
 25 46  1  0
 25 47  1  0
 26 48  1  0
 26 49  1  0
M  END
