
     RDKit          3D

 49 52  0  0  0  0  0  0  0  0999 V2000
   51.8872   36.3477   -0.5289 C   0  0  0  0  0  0  0  0  0  0  0  0
   52.1324   37.4605    0.2601 C   0  0  0  0  0  0  0  0  0  0  0  0
   51.1506   38.0707    0.9689 C   0  0  0  0  0  0  0  0  0  0  0  0
   49.8336   37.6320    0.9277 C   0  0  0  0  0  0  0  0  0  0  0  0
   53.3445   38.0414    0.5610 O   0  0  0  0  0  0  0  0  0  0  0  0
   49.5374   36.5091    0.1341 C   0  0  0  0  0  0  0  0  0  0  0  0
   50.5647   35.8593   -0.5998 C   0  0  0  0  0  0  0  0  0  0  0  0
   51.7051   39.0548    1.7591 O   0  0  0  0  0  0  0  0  0  0  0  0
   54.7383   34.5011   -5.7253 N   0  0  0  0  0  0  0  0  0  0  0  0
   54.0308   35.5486   -6.2467 C   0  0  0  0  0  0  0  0  0  0  0  0
   52.8655   35.9555   -5.6622 N   0  0  0  0  0  0  0  0  0  0  0  0
   52.4355   35.2915   -4.5616 C   0  0  0  0  0  0  0  0  0  0  0  0
   53.1149   34.2533   -4.0298 C   0  0  0  0  0  0  0  0  0  0  0  0
   54.3032   33.8358   -4.6173 C   0  0  0  0  0  0  0  0  0  0  0  0
   55.0544   32.7504   -4.0953 N   0  0  0  0  0  0  0  0  0  0  0  0
   52.4773   33.7793   -2.9429 N   0  0  0  0  0  0  0  0  0  0  0  0
   51.3853   34.5852   -2.8591 C   0  0  0  0  0  0  0  0  0  0  0  0
   51.3389   35.5325   -3.8301 N   0  0  0  0  0  0  0  0  0  0  0  0
   50.3512   36.5905   -4.0275 C   0  0  0  0  0  0  0  0  0  0  0  0
   49.2797   36.1243   -4.9987 C   0  0  0  0  0  0  0  0  0  0  0  0
   48.0829   37.0905   -5.0440 C   0  0  0  0  0  0  0  0  0  0  0  0
   47.9495   37.5744   -6.4202 N   0  0  0  0  0  0  0  0  0  0  0  0
   48.5394   38.8734   -6.7938 C   0  0  0  0  0  0  0  0  0  0  0  0
   49.5036   38.7536   -7.9563 C   0  0  0  0  0  0  0  0  0  0  0  0
   48.8944   39.8603   -5.6941 C   0  0  0  0  0  0  0  0  0  0  0  0
   53.1261   38.9007    1.6830 C   0  0  0  0  0  0  0  0  0  0  0  0
   47.7423   35.8465    0.1271 Br  0  0  0  0  0  0  0  0  0  0  0  0
   50.1622   34.3892   -1.5634 S   0  0  0  0  0  0  0  0  0  0  0  0
   52.7121   35.8568   -1.0255 H   0  0  0  0  0  0  0  0  0  0  0  0
   49.0704   38.1185    1.5209 H   0  0  0  0  0  0  0  0  0  0  0  0
   54.3974   36.0596   -7.1262 H   0  0  0  0  0  0  0  0  0  0  0  0
   55.7944   32.9054   -3.3749 H   0  0  0  0  0  0  0  0  0  0  0  0
   54.8737   31.7778   -4.4293 H   0  0  0  0  0  0  0  0  0  0  0  0
   50.8585   37.4944   -4.4304 H   0  0  0  0  0  0  0  0  0  0  0  0
   49.8816   36.8766   -3.0650 H   0  0  0  0  0  0  0  0  0  0  0  0
   49.7281   36.0543   -6.0148 H   0  0  0  0  0  0  0  0  0  0  0  0
   48.9322   35.1107   -4.6997 H   0  0  0  0  0  0  0  0  0  0  0  0
   47.1699   36.5431   -4.7250 H   0  0  0  0  0  0  0  0  0  0  0  0
   48.2570   37.9560   -4.3685 H   0  0  0  0  0  0  0  0  0  0  0  0
   46.9300   37.5887   -6.6689 H   0  0  0  0  0  0  0  0  0  0  0  0
   47.7085   39.4351   -7.2876 H   0  0  0  0  0  0  0  0  0  0  0  0
   49.7820   39.7580   -8.3426 H   0  0  0  0  0  0  0  0  0  0  0  0
   50.4247   38.2330   -7.6198 H   0  0  0  0  0  0  0  0  0  0  0  0
   49.0442   38.1685   -8.7821 H   0  0  0  0  0  0  0  0  0  0  0  0
   49.2234   40.8276   -6.1315 H   0  0  0  0  0  0  0  0  0  0  0  0
   48.0150   40.0562   -5.0441 H   0  0  0  0  0  0  0  0  0  0  0  0
   49.7240   39.4553   -5.0775 H   0  0  0  0  0  0  0  0  0  0  0  0
   53.6157   39.8834    1.5213 H   0  0  0  0  0  0  0  0  0  0  0  0
   53.5059   38.4192    2.6097 H   0  0  0  0  0  0  0  0  0  0  0  0
  2  1  2  0
  3  2  1  0
  4  3  2  0
  5  2  1  0
  6  4  1  0
  7  6  2  0
  7  1  1  0
  8  3  1  0
 10  9  2  0
 11 10  1  0
 12 11  2  0
 13 12  1  0
 14  9  1  0
 14 13  2  0
 15 14  1  0
 16 13  1  0
 17 16  2  0
 18 17  1  0
 18 12  1  0
 19 18  1  0
 20 19  1  0
 21 20  1  0
 22 21  1  0
 23 22  1  0
 23 24  1  0
 25 23  1  0
 26  8  1  0
 26  5  1  0
 27  6  1  0
 28 17  1  0
 28  7  1  0
  1 29  1  0
  4 30  1  0
 10 31  1  0
 15 32  1  0
 15 33  1  0
 19 34  1  0
 19 35  1  0
 20 36  1  0
 20 37  1  0
 21 38  1  0
 21 39  1  0
 22 40  1  0
 23 41  1  0
 24 42  1  0
 24 43  1  0
 24 44  1  0
 25 45  1  0
 25 46  1  0
 25 47  1  0
 26 48  1  0
 26 49  1  0
M  END
