
     RDKit          3D

 80 87  0  0  0  0  0  0  0  0999 V2000
   28.6717   98.1012   50.8430 C   0  0  0  0  0  0  0  0  0  0  0  0
   24.4151   88.2807   51.6611 C   0  0  0  0  0  0  0  0  0  0  0  0
   25.3708   95.1576   47.7840 C   0  0  0  0  0  0  0  0  0  0  0  0
   28.5264   94.6215   52.1717 N   0  0  0  0  0  0  0  0  0  0  0  0
   30.1147   90.5112   56.6814 O   0  0  0  0  0  0  0  0  0  0  0  0
   27.5457   98.9315   51.4665 C   0  0  0  0  0  0  0  0  0  0  0  0
   24.1350   86.8998   52.2316 C   0  0  0  0  0  0  0  0  0  0  0  0
   24.3264   96.1954   48.2213 C   0  0  0  0  0  0  0  0  0  0  0  0
   28.9762   92.3217   53.8852 N   0  0  0  0  0  0  0  0  0  0  0  0
   27.3752  100.2245   50.7336 C   0  0  0  0  0  0  0  0  0  0  0  0
   24.1062   97.2744   47.2008 C   0  0  0  0  0  0  0  0  0  0  0  0
   26.5422   93.1395   50.7033 N   0  0  0  0  0  0  0  0  0  0  0  0
   27.1561   95.4185   50.2498 C   0  0  0  0  0  0  0  0  0  0  0  0
   30.1783   94.4836   54.0231 C   0  0  0  0  0  0  0  0  0  0  0  0
   28.2326   90.0305   54.3326 C   0  0  0  0  0  0  0  0  0  0  0  0
   25.3685   91.0527   50.5598 C   0  0  0  0  0  0  0  0  0  0  0  0
   32.0580   92.3915   55.4029 C   0  0  0  0  0  0  0  0  0  0  0  0
   30.7339   97.4566   53.1699 C   0  0  0  0  0  0  0  0  0  0  0  0
   30.3351   93.5506   56.9162 C   0  0  0  0  0  0  0  0  0  0  0  0
   26.3664   87.5362   54.1168 C   0  0  0  0  0  0  0  0  0  0  0  0
   24.1568   92.2137   47.9910 C   0  0  0  0  0  0  0  0  0  0  0  0
   28.8444   93.7119   57.2438 C   0  0  0  0  0  0  0  0  0  0  0  0
   28.1370   95.6000   51.3271 C   0  0  0  0  0  0  0  0  0  0  0  0
   29.9116   93.2391   54.4621 C   0  0  0  0  0  0  0  0  0  0  0  0
   27.2873   89.9096   53.3900 C   0  0  0  0  0  0  0  0  0  0  0  0
   25.6523   92.2936   50.1209 C   0  0  0  0  0  0  0  0  0  0  0  0
   27.6651  100.3055   49.5109 O   0  0  0  0  0  0  0  0  0  0  0  0
   23.3357   98.2345   47.4664 O   0  0  0  0  0  0  0  0  0  0  0  0
   28.8417   96.7812   51.5558 C   0  0  0  0  0  0  0  0  0  0  0  0
   30.5780   92.6578   55.6753 C   0  0  1  0  0  0  0  0  0  0  0  0
   26.4177   88.7463   53.2193 C   0  0  0  0  0  0  0  0  0  0  0  0
   25.0779   92.8751   48.9866 C   0  0  0  0  0  0  0  0  0  0  0  0
   26.9085  101.3389   51.4080 O   0  0  0  0  0  0  0  0  0  0  0  0
   24.7290   97.2189   45.9650 O   0  0  0  0  0  0  0  0  0  0  0  0
   29.7106   96.5126   52.5903 C   0  0  0  0  0  0  0  0  0  0  0  0
   29.9149   91.3479   55.7502 C   0  0  0  0  0  0  0  0  0  0  0  0
   25.6223   89.0306   52.1818 C   0  0  0  0  0  0  0  0  0  0  0  0
   25.6214   94.1428   48.8846 C   0  0  0  0  0  0  0  0  0  0  0  0
   29.4884   95.1804   52.9368 C   0  0  0  0  0  0  0  0  0  0  0  0
   29.0164   91.2324   54.6001 C   0  0  0  0  0  0  0  0  0  0  0  0
   25.9886   90.3853   51.7212 C   0  0  0  0  0  0  0  0  0  0  0  0
   26.4756   94.2879   49.9792 C   0  0  0  0  0  0  0  0  0  0  0  0
   26.9464   90.9049   52.4284 N   0  0  0  0  0  0  0  0  0  0  0  0
   27.8553   92.6855   52.2366 Fe  0  0  2  0  0  4  0  0  0  0  0  0
   28.4531   97.9159   49.7699 H   0  0  0  0  0  0  0  0  0  0  0  0
   29.6231   98.6722   50.8662 H   0  0  0  0  0  0  0  0  0  0  0  0
   23.5162   88.9165   51.8080 H   0  0  0  0  0  0  0  0  0  0  0  0
   24.5394   88.1257   50.5711 H   0  0  0  0  0  0  0  0  0  0  0  0
   26.3251   95.6639   47.5247 H   0  0  0  0  0  0  0  0  0  0  0  0
   25.0305   94.6484   46.8587 H   0  0  0  0  0  0  0  0  0  0  0  0
   26.5930   98.3594   51.4329 H   0  0  0  0  0  0  0  0  0  0  0  0
   27.7856   99.1493   52.5296 H   0  0  0  0  0  0  0  0  0  0  0  0
   25.0539   86.2769   52.2112 H   0  0  0  0  0  0  0  0  0  0  0  0
   23.3663   86.3951   51.6083 H   0  0  0  0  0  0  0  0  0  0  0  0
   23.7253   86.9656   53.2585 H   0  0  0  0  0  0  0  0  0  0  0  0
   23.3588   95.6803   48.4052 H   0  0  0  0  0  0  0  0  0  0  0  0
   24.6458   96.6736   49.1721 H   0  0  0  0  0  0  0  0  0  0  0  0
   26.9923   96.2748   49.6139 H   0  0  0  0  0  0  0  0  0  0  0  0
   30.9504   95.0368   54.5377 H   0  0  0  0  0  0  0  0  0  0  0  0
   28.4281   89.2086   55.0013 H   0  0  0  0  0  0  0  0  0  0  0  0
   24.6333   90.4883   50.0119 H   0  0  0  0  0  0  0  0  0  0  0  0
   32.1985   91.7830   54.4816 H   0  0  0  0  0  0  0  0  0  0  0  0
   32.6043   93.3496   55.2710 H   0  0  0  0  0  0  0  0  0  0  0  0
   32.5213   91.8529   56.2581 H   0  0  0  0  0  0  0  0  0  0  0  0
   30.4097   98.5110   53.0587 H   0  0  0  0  0  0  0  0  0  0  0  0
   30.8619   97.2767   54.2562 H   0  0  0  0  0  0  0  0  0  0  0  0
   31.7057   97.3127   52.6542 H   0  0  0  0  0  0  0  0  0  0  0  0
   30.8332   93.0887   57.7965 H   0  0  0  0  0  0  0  0  0  0  0  0
   30.7911   94.5540   56.7794 H   0  0  0  0  0  0  0  0  0  0  0  0
   27.1129   87.5595   54.9287 H   0  0  0  0  0  0  0  0  0  0  0  0
   25.3707   87.4773   54.6018 H   0  0  0  0  0  0  0  0  0  0  0  0
   26.5650   86.6179   53.5292 H   0  0  0  0  0  0  0  0  0  0  0  0
   24.7452   91.5503   47.3238 H   0  0  0  0  0  0  0  0  0  0  0  0
   23.3806   91.6196   48.5148 H   0  0  0  0  0  0  0  0  0  0  0  0
   23.6199   92.9662   47.3797 H   0  0  0  0  0  0  0  0  0  0  0  0
   28.3020   94.1974   56.4058 H   0  0  0  0  0  0  0  0  0  0  0  0
   28.7370   94.3574   58.1407 H   0  0  0  0  0  0  0  0  0  0  0  0
   28.3758   92.7314   57.4701 H   0  0  0  0  0  0  0  0  0  0  0  0
   27.3147  102.2528   51.2463 H   0  0  0  0  0  0  0  0  0  0  0  0
   24.1892   97.1147   45.1141 H   0  0  0  0  0  0  0  0  0  0  0  0
  6  1  1  0
  7  2  1  0
  8  3  1  0
 10  6  1  0
 11  8  1  0
 22 19  1  0
 23 13  1  0
 23  4  1  0
 24  9  1  0
 24 14  2  0
 25 15  2  0
 26 16  2  0
 26 12  1  0
 27 10  2  0
 28 11  2  0
 29 23  2  0
 29  1  1  0
 30 17  1  6
 30 24  1  0
 30 19  1  0
 31 20  1  0
 31 25  1  0
 32 21  1  0
 32 26  1  0
 33 10  1  0
 34 11  1  0
 35 29  1  0
 35 18  1  0
 36  5  2  0
 36 30  1  0
 37 31  2  0
 37  2  1  0
 38 32  2  0
 38  3  1  0
 39 35  2  0
 39 14  1  0
 39  4  1  0
 40  9  2  0
 40 36  1  0
 40 15  1  0
 41 37  1  0
 41 16  1  0
 42 12  1  0
 42 38  1  0
 42 13  2  0
 43 41  2  0
 43 25  1  0
 44 43  1  0
 44 12  1  0
 44  9  1  0
 44  4  1  0
  1 45  1  0
  1 46  1  0
  2 47  1  0
  2 48  1  0
  3 49  1  0
  3 50  1  0
  6 51  1  0
  6 52  1  0
  7 53  1  0
  7 54  1  0
  7 55  1  0
  8 56  1  0
  8 57  1  0
 13 58  1  0
 14 59  1  0
 15 60  1  0
 16 61  1  0
 17 62  1  0
 17 63  1  0
 17 64  1  0
 18 65  1  0
 18 66  1  0
 18 67  1  0
 19 68  1  0
 19 69  1  0
 20 70  1  0
 20 71  1  0
 20 72  1  0
 21 73  1  0
 21 74  1  0
 21 75  1  0
 22 76  1  0
 22 77  1  0
 22 78  1  0
 33 79  1  0
 34 80  1  0
M  CHG  2   9   1  43   1
M  END
