
     RDKit          3D

 80 87  0  0  0  0  0  0  0  0999 V2000
   29.1660   98.2170   49.3202 C   0  0  0  0  0  0  0  0  0  0  0  0
   24.6489   89.3407   53.3250 C   0  0  0  0  0  0  0  0  0  0  0  0
   25.9862   94.3723   47.3139 C   0  0  0  0  0  0  0  0  0  0  0  0
   28.8643   95.4443   51.7932 N   0  0  0  0  0  0  0  0  0  0  0  0
   30.0908   93.2228   57.5652 O   0  0  0  0  0  0  0  0  0  0  0  0
   27.9960   99.1869   49.5112 C   0  0  0  0  0  0  0  0  0  0  0  0
   24.5721   87.9966   54.0308 C   0  0  0  0  0  0  0  0  0  0  0  0
   24.9414   95.4977   47.2843 C   0  0  0  0  0  0  0  0  0  0  0  0
   29.1604   93.9111   54.2406 N   0  0  0  0  0  0  0  0  0  0  0  0
   27.8992  100.1315   48.3552 C   0  0  0  0  0  0  0  0  0  0  0  0
   24.8061   96.1394   45.9337 C   0  0  0  0  0  0  0  0  0  0  0  0
   26.9375   93.5342   50.8296 N   0  0  0  0  0  0  0  0  0  0  0  0
   27.6281   95.4996   49.6310 C   0  0  0  0  0  0  0  0  0  0  0  0
   30.4005   95.9792   53.6720 C   0  0  0  0  0  0  0  0  0  0  0  0
   28.3404   91.9321   55.4297 C   0  0  0  0  0  0  0  0  0  0  0  0
   25.7278   91.5343   51.3679 C   0  0  0  0  0  0  0  0  0  0  0  0
   32.1480   94.5206   55.8245 C   0  0  0  0  0  0  0  0  0  0  0  0
   31.0722   98.4492   51.8491 C   0  0  0  0  0  0  0  0  0  0  0  0
   30.3652   96.1446   56.7111 C   0  0  0  0  0  0  0  0  0  0  0  0
   26.4345   89.5258   56.0025 C   0  0  0  0  0  0  0  0  0  0  0  0
   24.6963   91.6977   48.4827 C   0  0  0  0  0  0  0  0  0  0  0  0
   28.8618   96.4123   56.8645 C   0  0  0  0  0  0  0  0  0  0  0  0
   28.5476   96.0552   50.6318 C   0  0  0  0  0  0  0  0  0  0  0  0
   30.0805   94.9744   54.5091 C   0  0  0  0  0  0  0  0  0  0  0  0
   27.4499   91.4815   54.5349 C   0  0  0  0  0  0  0  0  0  0  0  0
   26.0648   92.5357   50.5332 C   0  0  0  0  0  0  0  0  0  0  0  0
   26.8444  100.7911   48.1596 O   0  0  0  0  0  0  0  0  0  0  0  0
   24.0431   97.1308   45.7893 O   0  0  0  0  0  0  0  0  0  0  0  0
   29.2639   97.2400   50.4671 C   0  0  0  0  0  0  0  0  0  0  0  0
   30.6608   94.8666   55.8895 C   0  0  1  0  0  0  0  0  0  0  0  0
   26.5660   90.3340   54.7369 C   0  0  0  0  0  0  0  0  0  0  0  0
   25.5715   92.6721   49.2321 C   0  0  0  0  0  0  0  0  0  0  0  0
   28.9705  100.2700   47.4908 O   0  0  0  0  0  0  0  0  0  0  0  0
   25.4995   95.6450   44.8415 O   0  0  0  0  0  0  0  0  0  0  0  0
   30.0640   97.3600   51.5819 C   0  0  0  0  0  0  0  0  0  0  0  0
   29.9652   93.6703   56.3858 C   0  0  0  0  0  0  0  0  0  0  0  0
   25.8398   90.2276   53.6183 C   0  0  0  0  0  0  0  0  0  0  0  0
   26.1485   93.8192   48.7181 C   0  0  0  0  0  0  0  0  0  0  0  0
   29.7918   96.2404   52.3671 C   0  0  0  0  0  0  0  0  0  0  0  0
   29.1338   93.1503   55.2986 C   0  0  0  0  0  0  0  0  0  0  0  0
   26.2631   91.3274   52.7279 C   0  0  0  0  0  0  0  0  0  0  0  0
   26.9396   94.3470   49.7400 C   0  0  0  0  0  0  0  0  0  0  0  0
   27.1888   92.0661   53.2615 N   0  0  0  0  0  0  0  0  0  0  0  0
   28.1473   93.6599   52.5036 Fe  0  0  2  0  0  4  0  0  0  0  0  0
   29.0402   97.6581   48.3687 H   0  0  0  0  0  0  0  0  0  0  0  0
   30.1159   98.7821   49.2187 H   0  0  0  0  0  0  0  0  0  0  0  0
   23.7224   89.9126   53.5446 H   0  0  0  0  0  0  0  0  0  0  0  0
   24.6449   89.1021   52.2430 H   0  0  0  0  0  0  0  0  0  0  0  0
   26.9653   94.7523   46.9516 H   0  0  0  0  0  0  0  0  0  0  0  0
   25.6898   93.5653   46.6123 H   0  0  0  0  0  0  0  0  0  0  0  0
   27.0458   98.6171   49.6034 H   0  0  0  0  0  0  0  0  0  0  0  0
   28.1441   99.7732   50.4438 H   0  0  0  0  0  0  0  0  0  0  0  0
   25.5336   87.4502   53.9324 H   0  0  0  0  0  0  0  0  0  0  0  0
   23.7785   87.3795   53.5579 H   0  0  0  0  0  0  0  0  0  0  0  0
   24.2942   88.1182   55.0960 H   0  0  0  0  0  0  0  0  0  0  0  0
   23.9533   95.0825   47.5787 H   0  0  0  0  0  0  0  0  0  0  0  0
   25.2147   96.2848   48.0194 H   0  0  0  0  0  0  0  0  0  0  0  0
   27.5215   96.0712   48.7220 H   0  0  0  0  0  0  0  0  0  0  0  0
   31.1531   96.6801   54.0024 H   0  0  0  0  0  0  0  0  0  0  0  0
   28.4775   91.4045   56.3590 H   0  0  0  0  0  0  0  0  0  0  0  0
   25.0137   90.8110   51.0127 H   0  0  0  0  0  0  0  0  0  0  0  0
   32.3289   93.6225   55.1924 H   0  0  0  0  0  0  0  0  0  0  0  0
   32.7225   95.3679   55.3934 H   0  0  0  0  0  0  0  0  0  0  0  0
   32.5477   94.3242   56.8431 H   0  0  0  0  0  0  0  0  0  0  0  0
   30.7789   99.3937   51.3480 H   0  0  0  0  0  0  0  0  0  0  0  0
   31.1317   98.6705   52.9337 H   0  0  0  0  0  0  0  0  0  0  0  0
   32.0693   98.1303   51.4814 H   0  0  0  0  0  0  0  0  0  0  0  0
   30.8000   96.0288   57.7280 H   0  0  0  0  0  0  0  0  0  0  0  0
   30.8509   97.0324   56.2537 H   0  0  0  0  0  0  0  0  0  0  0  0
   27.1321   89.8386   56.7979 H   0  0  0  0  0  0  0  0  0  0  0  0
   25.4109   89.6444   56.4126 H   0  0  0  0  0  0  0  0  0  0  0  0
   26.6469   88.4580   55.7959 H   0  0  0  0  0  0  0  0  0  0  0  0
   25.3079   90.8395   48.1355 H   0  0  0  0  0  0  0  0  0  0  0  0
   23.8773   91.3306   49.1341 H   0  0  0  0  0  0  0  0  0  0  0  0
   24.2135   92.1812   47.6102 H   0  0  0  0  0  0  0  0  0  0  0  0
   28.3808   96.5652   55.8758 H   0  0  0  0  0  0  0  0  0  0  0  0
   28.7161   97.3363   57.4626 H   0  0  0  0  0  0  0  0  0  0  0  0
   28.3587   95.5778   57.3963 H   0  0  0  0  0  0  0  0  0  0  0  0
   28.8510  100.6918   46.5775 H   0  0  0  0  0  0  0  0  0  0  0  0
   26.4575   95.3285   44.9328 H   0  0  0  0  0  0  0  0  0  0  0  0
  6  1  1  0
  7  2  1  0
  8  3  1  0
 10  6  1  0
 11  8  1  0
 22 19  1  0
 23 13  1  0
 23  4  1  0
 24  9  1  0
 24 14  2  0
 25 15  2  0
 26 16  2  0
 26 12  1  0
 27 10  2  0
 28 11  2  0
 29 23  2  0
 29  1  1  0
 30 17  1  6
 30 24  1  0
 30 19  1  0
 31 20  1  0
 31 25  1  0
 32 21  1  0
 32 26  1  0
 33 10  1  0
 34 11  1  0
 35 29  1  0
 35 18  1  0
 36  5  2  0
 36 30  1  0
 37 31  2  0
 37  2  1  0
 38 32  2  0
 38  3  1  0
 39 35  2  0
 39 14  1  0
 39  4  1  0
 40  9  2  0
 40 36  1  0
 40 15  1  0
 41 37  1  0
 41 16  1  0
 42 12  1  0
 42 38  1  0
 42 13  2  0
 43 41  2  0
 43 25  1  0
 44 43  1  0
 44 12  1  0
 44  9  1  0
 44  4  1  0
  1 45  1  0
  1 46  1  0
  2 47  1  0
  2 48  1  0
  3 49  1  0
  3 50  1  0
  6 51  1  0
  6 52  1  0
  7 53  1  0
  7 54  1  0
  7 55  1  0
  8 56  1  0
  8 57  1  0
 13 58  1  0
 14 59  1  0
 15 60  1  0
 16 61  1  0
 17 62  1  0
 17 63  1  0
 17 64  1  0
 18 65  1  0
 18 66  1  0
 18 67  1  0
 19 68  1  0
 19 69  1  0
 20 70  1  0
 20 71  1  0
 20 72  1  0
 21 73  1  0
 21 74  1  0
 21 75  1  0
 22 76  1  0
 22 77  1  0
 22 78  1  0
 33 79  1  0
 34 80  1  0
M  CHG  2   9   1  43   1
M  END
