
     RDKit          3D

 16 15  0  0  0  0  0  0  0  0999 V2000
   56.0795  114.4725   16.1163 C   0  0  0  0  0  0  0  0  0  0  0  0
   56.5591  113.9029   17.1355 O   0  0  0  0  0  0  0  0  0  0  0  0
   56.9234  114.7475   14.9415 C   0  0  0  0  0  0  0  0  0  0  0  0
   54.7399  114.8346   16.0966 O   0  0  0  0  0  0  0  0  0  0  0  0
   57.3741  116.1606   14.6792 C   0  0  0  0  0  0  0  0  0  0  0  0
   56.9204  114.8394   11.9839 O   0  0  0  0  0  0  0  0  0  0  0  0
   58.2912  116.2802   13.4522 C   0  0  0  0  0  0  0  0  0  0  0  0
   59.1519  114.3800   12.2225 O   0  0  0  0  0  0  0  0  0  0  0  0
   58.1652  115.1114   12.5239 C   0  0  0  0  0  0  0  0  0  0  0  0
   57.1969  113.8096   14.1374 O   0  0  0  0  0  0  0  0  0  0  0  0
   54.1113  114.4639   15.3940 H   0  0  0  0  0  0  0  0  0  0  0  0
   56.4502  116.7607   14.5285 H   0  0  0  0  0  0  0  0  0  0  0  0
   57.8983  116.5580   15.5753 H   0  0  0  0  0  0  0  0  0  0  0  0
   56.7283  113.9480   11.5425 H   0  0  0  0  0  0  0  0  0  0  0  0
   58.0564  117.2154   12.9003 H   0  0  0  0  0  0  0  0  0  0  0  0
   59.3602  116.3202   13.7509 H   0  0  0  0  0  0  0  0  0  0  0  0
  2  1  2  0
  3  1  1  0
  4  1  1  0
  5  3  1  0
  7  5  1  0
  9  8  2  0
  9  7  1  0
  9  6  1  0
 10  3  2  0
  4 11  1  0
  5 12  1  0
  5 13  1  0
  6 14  1  0
  7 15  1  0
  7 16  1  0
M  END
