
     RDKit          3D

 52 53  0  0  0  0  0  0  0  0999 V2000
  -28.4718  -25.5486   25.1794 C   0  0  0  0  0  0  0  0  0  0  0  0
  -34.0502  -27.7430   27.8794 C   0  0  0  0  0  0  0  0  0  0  0  0
  -36.9909  -29.2818   22.5705 P   0  0  1  0  0  0  0  0  0  0  0  0
  -38.5274  -31.5942   22.6345 P   0  0  0  0  0  0  0  0  0  0  0  0
  -31.3977  -29.1747   28.6424 C   0  0  0  0  0  0  0  0  0  0  0  0
  -29.4860  -28.6149   27.0590 C   0  0  0  0  0  0  0  0  0  0  0  0
  -30.6093  -28.1810   27.7870 C   0  0  0  0  0  0  0  0  0  0  0  0
  -31.0279  -26.8439   27.5686 C   0  0  0  0  0  0  0  0  0  0  0  0
  -32.1344  -26.2842   28.2541 N   0  0  0  0  0  0  0  0  0  0  0  0
  -30.3295  -26.0366   26.7282 N   0  0  0  0  0  0  0  0  0  0  0  0
  -29.2205  -26.4723   26.0858 C   0  0  0  0  0  0  0  0  0  0  0  0
  -28.8161  -27.7581   26.2416 N   0  0  0  0  0  0  0  0  0  0  0  0
  -36.0851  -30.3120   21.9373 O   0  0  0  0  0  0  0  0  0  0  0  0
  -37.6272  -32.1214   23.7309 O   0  0  0  0  0  0  0  0  0  0  0  0
  -34.0168  -31.5342   26.7628 S   0  0  0  0  0  0  0  0  0  0  0  0
  -32.5739  -31.2414   27.5923 C   0  0  0  0  0  0  0  0  0  0  0  0
  -36.9451  -27.8858   21.6362 O   0  0  0  0  0  0  0  0  0  0  0  0
  -40.1058  -32.0951   22.9210 O   0  0  0  0  0  0  0  0  0  0  0  0
  -32.5515  -29.8628   27.9212 C   0  0  0  0  0  0  0  0  0  0  0  0
  -38.5697  -29.8975   22.5702 O   0  0  0  0  0  0  0  0  0  0  0  0
  -38.0549  -32.2321   21.1553 O   0  0  0  0  0  0  0  0  0  0  0  0
  -33.7437  -29.1779   27.5350 C   0  0  0  0  0  0  0  0  0  0  0  0
  -34.6574  -29.9791   26.8400 C   0  0  0  0  0  0  0  0  0  0  0  0
  -36.0175  -29.5792   26.3287 C   0  0  0  0  0  0  0  0  0  0  0  0
  -36.2603  -30.0349   24.8905 C   0  0  0  0  0  0  0  0  0  0  0  0
  -36.4347  -28.8728   24.1186 O   0  0  0  0  0  0  0  0  0  0  0  0
  -31.5984  -32.3659   27.9462 C   0  0  2  0  0  0  0  0  0  0  0  0
  -31.3414  -32.5206   29.4602 C   0  0  0  0  0  0  0  0  0  0  0  0
  -30.4116  -32.3091   27.1929 O   0  0  0  0  0  0  0  0  0  0  0  0
  -28.5344  -24.5067   25.5586 H   0  0  0  0  0  0  0  0  0  0  0  0
  -28.9115  -25.5936   24.1615 H   0  0  0  0  0  0  0  0  0  0  0  0
  -27.4027  -25.8448   25.1284 H   0  0  0  0  0  0  0  0  0  0  0  0
  -33.2360  -27.2512   28.4375 H   0  0  0  0  0  0  0  0  0  0  0  0
  -34.2289  -27.1677   26.9470 H   0  0  0  0  0  0  0  0  0  0  0  0
  -34.9588  -27.7001   28.5154 H   0  0  0  0  0  0  0  0  0  0  0  0
  -30.6608  -29.9095   28.9942 H   0  0  0  0  0  0  0  0  0  0  0  0
  -31.7900  -28.6881   29.5608 H   0  0  0  0  0  0  0  0  0  0  0  0
  -29.1435  -29.6384   27.1353 H   0  0  0  0  0  0  0  0  0  0  0  0
  -32.6806  -25.5183   27.8008 H   0  0  0  0  0  0  0  0  0  0  0  0
  -32.1121  -26.2841   29.2954 H   0  0  0  0  0  0  0  0  0  0  0  0
  -36.2247  -27.3364   22.0363 H   0  0  0  0  0  0  0  0  0  0  0  0
  -40.6684  -31.3249   22.6536 H   0  0  0  0  0  0  0  0  0  0  0  0
  -37.9353  -33.2009   21.3224 H   0  0  0  0  0  0  0  0  0  0  0  0
  -36.7869  -30.0266   26.9926 H   0  0  0  0  0  0  0  0  0  0  0  0
  -36.1449  -28.4782   26.3878 H   0  0  0  0  0  0  0  0  0  0  0  0
  -35.3724  -30.5985   24.5270 H   0  0  0  0  0  0  0  0  0  0  0  0
  -37.1584  -30.6948   24.8735 H   0  0  0  0  0  0  0  0  0  0  0  0
  -32.1033  -33.3089   27.6435 H   0  0  0  0  0  0  0  0  0  0  0  0
  -32.2827  -32.3595   30.0277 H   0  0  0  0  0  0  0  0  0  0  0  0
  -30.9927  -33.5551   29.6657 H   0  0  0  0  0  0  0  0  0  0  0  0
  -30.5621  -31.8423   29.8535 H   0  0  0  0  0  0  0  0  0  0  0  0
  -29.7018  -31.8935   27.7474 H   0  0  0  0  0  0  0  0  0  0  0  0
  7  5  1  0
  7  6  2  0
  8  7  1  0
  9  8  1  0
 10  8  2  0
 11 10  1  0
 11  1  1  0
 12 11  2  0
 12  6  1  0
 13  3  2  0
 14  4  2  0
 16 15  1  0
  3 17  1  6
 18  4  1  0
 19 16  2  0
 19  5  1  0
 20  4  1  0
 20  3  1  0
 21  4  1  0
 22 19  1  0
 22  2  1  0
 23 22  2  0
 23 15  1  0
 24 23  1  0
 25 24  1  0
 26 25  1  0
 26  3  1  0
 27 16  1  0
 27 28  1  0
 29 27  1  0
  1 30  1  0
  1 31  1  0
  1 32  1  0
  2 33  1  0
  2 34  1  0
  2 35  1  0
  5 36  1  0
  5 37  1  0
  6 38  1  0
  9 39  1  0
  9 40  1  0
 17 41  1  0
 18 42  1  0
 21 43  1  0
 24 44  1  0
 24 45  1  0
 25 46  1  0
 25 47  1  0
 27 48  1  6
 28 49  1  0
 28 50  1  0
 28 51  1  0
 29 52  1  0
M  END
