
     RDKit          3D

 51 52  0  0  0  0  0  0  0  0999 V2000
   -1.7564   -5.4297   32.4732 C   0  0  0  0  0  0  0  0  0  0  0  0
   -2.3464   -5.5433   31.2021 C   0  0  0  0  0  0  0  0  0  0  0  0
   -2.5783   -4.4019   30.4310 C   0  0  0  0  0  0  0  0  0  0  0  0
   -2.2166   -3.1422   30.9133 C   0  0  0  0  0  0  0  0  0  0  0  0
   -1.6475   -3.0187   32.1836 C   0  0  0  0  0  0  0  0  0  0  0  0
   -1.4350   -4.1558   32.9769 C   0  0  0  0  0  0  0  0  0  0  0  0
   -0.9397   -4.0177   34.2719 O   0  0  0  0  0  0  0  0  0  0  0  0
   -1.5354   -6.6674   33.3018 C   0  0  0  0  0  0  0  0  0  0  0  0
   -0.1380   -6.7620   33.7917 N   0  0  0  0  0  0  0  0  0  0  0  0
    0.7828   -6.9795   32.6592 C   0  0  0  0  0  0  0  0  0  0  0  0
    2.2276   -6.6357   33.0281 C   0  0  0  0  0  0  0  0  0  0  0  0
    2.3429   -5.2876   33.6434 N   0  0  0  0  0  0  0  0  0  0  0  0
    2.2983   -4.2616   32.5702 C   0  0  0  0  0  0  0  0  0  0  0  0
    2.6897   -2.8814   33.0332 C   0  0  0  0  0  0  0  0  0  0  0  0
    3.9352   -2.3442   32.6647 C   0  0  0  0  0  0  0  0  0  0  0  0
    4.3090   -1.0741   33.1143 C   0  0  0  0  0  0  0  0  0  0  0  0
    3.4428   -0.3314   33.9237 C   0  0  0  0  0  0  0  0  0  0  0  0
    2.2099   -0.8655   34.3002 C   0  0  0  0  0  0  0  0  0  0  0  0
    1.8447   -2.1406   33.8685 C   0  0  0  0  0  0  0  0  0  0  0  0
   -0.0333   -7.8867   34.7468 C   0  0  0  0  0  0  0  0  0  0  0  0
   -0.7260   -7.5106   36.0077 C   0  0  0  0  0  0  0  0  0  0  0  0
   -1.9234   -7.1247   35.9621 O   0  0  0  0  0  0  0  0  0  0  0  0
    3.5902   -5.2406   34.4417 C   0  0  0  0  0  0  0  0  0  0  0  0
   -0.0704   -7.6022   37.2230 O   0  0  0  0  0  0  0  0  0  0  0  0
    3.3831   -5.9548   35.7349 C   0  0  0  0  0  0  0  0  0  0  0  0
    4.3691   -6.4125   36.3673 O   0  0  0  0  0  0  0  0  0  0  0  0
    2.1035   -6.1183   36.2313 O   0  0  0  0  0  0  0  0  0  0  0  0
   -2.6249   -6.5117   30.8054 H   0  0  0  0  0  0  0  0  0  0  0  0
   -3.0291   -4.4950   29.4514 H   0  0  0  0  0  0  0  0  0  0  0  0
   -2.3885   -2.2609   30.3089 H   0  0  0  0  0  0  0  0  0  0  0  0
   -1.3896   -2.0369   32.5600 H   0  0  0  0  0  0  0  0  0  0  0  0
   -1.0021   -3.1382   34.7705 H   0  0  0  0  0  0  0  0  0  0  0  0
   -2.2513   -6.6075   34.1495 H   0  0  0  0  0  0  0  0  0  0  0  0
   -1.8011   -7.5824   32.7229 H   0  0  0  0  0  0  0  0  0  0  0  0
    0.7370   -8.0357   32.3066 H   0  0  0  0  0  0  0  0  0  0  0  0
    0.5096   -6.3604   31.7795 H   0  0  0  0  0  0  0  0  0  0  0  0
    2.6132   -7.4285   33.7025 H   0  0  0  0  0  0  0  0  0  0  0  0
    2.8628   -6.7247   32.1175 H   0  0  0  0  0  0  0  0  0  0  0  0
    1.2670   -4.1957   32.1665 H   0  0  0  0  0  0  0  0  0  0  0  0
    2.9528   -4.5486   31.7159 H   0  0  0  0  0  0  0  0  0  0  0  0
    4.6175   -2.9060   32.0389 H   0  0  0  0  0  0  0  0  0  0  0  0
    5.2685   -0.6616   32.8302 H   0  0  0  0  0  0  0  0  0  0  0  0
    3.7320    0.6545   34.2639 H   0  0  0  0  0  0  0  0  0  0  0  0
    1.5428   -0.2955   34.9340 H   0  0  0  0  0  0  0  0  0  0  0  0
    0.9047   -2.5372   34.1740 H   0  0  0  0  0  0  0  0  0  0  0  0
   -0.4735   -8.8176   34.3219 H   0  0  0  0  0  0  0  0  0  0  0  0
    1.0180   -8.1052   35.0163 H   0  0  0  0  0  0  0  0  0  0  0  0
    3.8698   -4.2088   34.7295 H   0  0  0  0  0  0  0  0  0  0  0  0
    4.4482   -5.6805   33.8839 H   0  0  0  0  0  0  0  0  0  0  0  0
    0.8926   -7.9111   37.2819 H   0  0  0  0  0  0  0  0  0  0  0  0
    1.9437   -6.6017   37.1072 H   0  0  0  0  0  0  0  0  0  0  0  0
  2  1  2  0
  3  2  1  0
  4  3  2  0
  5  4  1  0
  6  5  2  0
  6  1  1  0
  7  6  1  0
  8  1  1  0
  9  8  1  0
 10  9  1  0
 11 10  1  0
 12 11  1  0
 13 12  1  0
 14 13  1  0
 15 14  2  0
 16 15  1  0
 17 16  2  0
 18 17  1  0
 19 14  1  0
 19 18  2  0
 20  9  1  0
 21 20  1  0
 22 21  2  0
 23 12  1  0
 24 21  1  0
 25 23  1  0
 26 25  2  0
 27 25  1  0
  2 28  1  0
  3 29  1  0
  4 30  1  0
  5 31  1  0
  7 32  1  0
  8 33  1  0
  8 34  1  0
 10 35  1  0
 10 36  1  0
 11 37  1  0
 11 38  1  0
 13 39  1  0
 13 40  1  0
 15 41  1  0
 16 42  1  0
 17 43  1  0
 18 44  1  0
 19 45  1  0
 20 46  1  0
 20 47  1  0
 23 48  1  0
 23 49  1  0
 24 50  1  0
 27 51  1  0
M  END
