
     RDKit          3D

 34 36  0  0  0  0  0  0  0  0999 V2000
    9.6497   71.7704   30.8231 C   0  0  0  0  0  0  0  0  0  0  0  0
    8.5978   71.3588   31.6610 C   0  0  0  0  0  0  0  0  0  0  0  0
    8.9206   70.8810   32.9315 C   0  0  0  0  0  0  0  0  0  0  0  0
   10.2136   70.8261   33.3719 C   0  0  0  0  0  0  0  0  0  0  0  0
   11.3029   71.2445   32.5694 C   0  0  0  0  0  0  0  0  0  0  0  0
   10.9870   71.7152   31.2709 C   0  0  0  0  0  0  0  0  0  0  0  0
    8.0769   70.4292   33.8857 N   0  0  0  0  0  0  0  0  0  0  0  0
    8.9038   70.1041   34.9162 C   0  0  0  0  0  0  0  0  0  0  0  0
   10.2038   70.3516   34.6318 N   0  0  0  0  0  0  0  0  0  0  0  0
   12.7177   71.2490   33.0494 C   0  0  0  0  0  0  0  0  0  0  0  0
   13.6533   72.1963   32.5655 N   0  0  0  0  0  0  0  0  0  0  0  0
   13.1214   70.3991   33.8876 O   0  0  0  0  0  0  0  0  0  0  0  0
    8.4031   69.4980   36.2356 C   0  0  2  0  0  0  0  0  0  0  0  0
    9.4249   68.7020   36.9282 N   0  0  0  0  0  0  0  0  0  0  0  0
    9.4006   67.3722   36.3192 C   0  0  0  0  0  0  0  0  0  0  0  0
    8.0292   67.1985   35.6703 C   0  0  0  0  0  0  0  0  0  0  0  0
    7.2878   68.4929   35.9540 C   0  0  0  0  0  0  0  0  0  0  0  0
    7.9177   70.6166   37.1646 C   0  0  0  0  0  0  0  0  0  0  0  0
    9.4307   72.1387   29.8293 H   0  0  0  0  0  0  0  0  0  0  0  0
    7.5697   71.4016   31.3256 H   0  0  0  0  0  0  0  0  0  0  0  0
   11.7714   72.0504   30.6040 H   0  0  0  0  0  0  0  0  0  0  0  0
   10.9951   70.2438   35.2871 H   0  0  0  0  0  0  0  0  0  0  0  0
   14.3209   72.6402   33.2344 H   0  0  0  0  0  0  0  0  0  0  0  0
   13.4056   72.7564   31.7197 H   0  0  0  0  0  0  0  0  0  0  0  0
   10.3764   69.1319   36.9303 H   0  0  0  0  0  0  0  0  0  0  0  0
   10.2060   67.2750   35.5579 H   0  0  0  0  0  0  0  0  0  0  0  0
    9.5573   66.6052   37.1072 H   0  0  0  0  0  0  0  0  0  0  0  0
    8.1428   67.0578   34.5727 H   0  0  0  0  0  0  0  0  0  0  0  0
    7.4860   66.3273   36.0973 H   0  0  0  0  0  0  0  0  0  0  0  0
    6.6364   68.7880   35.1020 H   0  0  0  0  0  0  0  0  0  0  0  0
    6.6496   68.3498   36.8552 H   0  0  0  0  0  0  0  0  0  0  0  0
    6.8364   70.8167   37.0034 H   0  0  0  0  0  0  0  0  0  0  0  0
    8.4865   71.5506   36.9672 H   0  0  0  0  0  0  0  0  0  0  0  0
    8.0707   70.3353   38.2288 H   0  0  0  0  0  0  0  0  0  0  0  0
  2  1  2  0
  3  2  1  0
  4  3  2  0
  5  4  1  0
  6  1  1  0
  6  5  2  0
  7  3  1  0
  8  7  2  0
  9  8  1  0
  9  4  1  0
 10  5  1  0
 11 10  1  0
 12 10  2  0
 13  8  1  0
 14 13  1  0
 15 14  1  0
 16 15  1  0
 17 16  1  0
 17 13  1  0
 13 18  1  1
  1 19  1  0
  2 20  1  0
  6 21  1  0
  9 22  1  0
 11 23  1  0
 11 24  1  0
 14 25  1  0
 15 26  1  0
 15 27  1  0
 16 28  1  0
 16 29  1  0
 17 30  1  0
 17 31  1  0
 18 32  1  0
 18 33  1  0
 18 34  1  0
M  END
