
     RDKit          3D

 89 93  0  0  0  0  0  0  0  0999 V2000
   77.1958   52.9680    8.2974 P   0  0  1  0  0  0  0  0  0  0  0  0
   76.7935   50.8115    6.6586 P   0  0  2  0  0  0  0  0  0  0  0  0
   68.0211   51.7414    4.6747 P   0  0  0  0  0  0  0  0  0  0  0  0
   78.3285   52.1055    8.8203 O   0  0  0  0  0  0  0  0  0  0  0  0
   76.3409   53.5691    9.6123 O   0  0  0  0  0  0  0  0  0  0  0  0
   77.4308   51.1662    5.3264 O   0  0  0  0  0  0  0  0  0  0  0  0
   77.8882   50.0179    7.6504 O   0  0  0  0  0  0  0  0  0  0  0  0
   78.6555   53.8477    6.3815 C   0  0  0  0  0  0  0  0  0  0  0  0
   77.7881   54.2750    7.4057 O   0  0  0  0  0  0  0  0  0  0  0  0
   79.9049   54.7343    6.4032 C   0  0  1  0  0  0  0  0  0  0  0  0
   79.5353   56.0847    6.1745 O   0  0  0  0  0  0  0  0  0  0  0  0
   80.6252   54.6263    7.7561 C   0  0  1  0  0  0  0  0  0  0  0  0
   82.0174   54.6655    7.5595 O   0  0  0  0  0  0  0  0  0  0  0  0
   80.1286   55.8582    8.4852 C   0  0  1  0  0  0  0  0  0  0  0  0
   81.0597   56.3739    9.4073 O   0  0  0  0  0  0  0  0  0  0  0  0
   79.8223   56.8274    7.3435 C   0  0  2  0  0  0  0  0  0  0  0  0
   74.6925   50.3999    5.4701 C   0  0  2  0  0  0  0  0  0  0  0  0
   78.2777   61.6845    8.1963 N   0  0  0  0  0  0  0  0  0  0  0  0
   67.5627   46.5753    1.3670 N   0  0  0  0  0  0  0  0  0  0  0  0
   75.5022   49.7767    6.4271 O   0  0  0  0  0  0  0  0  0  0  0  0
   79.5381   61.2170    7.9209 C   0  0  0  0  0  0  0  0  0  0  0  0
   69.2004   45.2823    0.0769 C   0  0  0  0  0  0  0  0  0  0  0  0
   73.2261   50.2894    5.9249 C   0  0  1  0  0  0  0  0  0  0  0  0
   68.8630   46.3743    1.0461 C   0  0  0  0  0  0  0  0  0  0  0  0
   80.6246   62.1266    7.8143 N   0  0  0  0  0  0  0  0  0  0  0  0
   72.9062   51.1759    6.9726 O   0  0  0  0  0  0  0  0  0  0  0  0
   72.3145   50.4931    4.7266 C   0  0  1  0  0  0  0  0  0  0  0  0
   69.8520   47.1720    1.6353 C   0  0  0  0  0  0  0  0  0  0  0  0
   79.7593   59.8811    7.7367 N   0  0  0  0  0  0  0  0  0  0  0  0
   72.1931   51.8459    4.3502 O   0  0  0  0  0  0  0  0  0  0  0  0
   71.1992   46.9704    1.3210 O   0  0  0  0  0  0  0  0  0  0  0  0
   78.7071   59.0367    7.8415 C   0  0  0  0  0  0  0  0  0  0  0  0
   70.4155   49.0478    3.2504 C   0  0  0  0  0  0  0  0  0  0  0  0
   72.7606   49.6167    3.5035 C   0  0  2  0  0  0  0  0  0  0  0  0
   69.4555   48.1685    2.5601 C   0  0  0  0  0  0  0  0  0  0  0  0
   71.7819   48.6279    3.0788 N   0  0  0  0  0  0  0  0  0  0  0  0
   77.4582   59.4704    8.1194 C   0  0  0  0  0  0  0  0  0  0  0  0
   67.6134   49.3357    3.9319 C   0  0  0  0  0  0  0  0  0  0  0  0
   74.0736   48.8779    3.8187 C   0  0  2  0  0  0  0  0  0  0  0  0
   68.0945   48.3244    2.9002 C   0  0  0  0  0  0  0  0  0  0  0  0
   75.0173   49.8354    4.2076 O   0  0  0  0  0  0  0  0  0  0  0  0
   77.2197   60.8296    8.2968 C   0  0  0  0  0  0  0  0  0  0  0  0
   74.5925   48.1061    2.6099 C   0  0  0  0  0  0  0  0  0  0  0  0
   67.1650   47.5072    2.2653 C   0  0  0  0  0  0  0  0  0  0  0  0
   76.0659   61.2689    8.5333 O   0  0  0  0  0  0  0  0  0  0  0  0
   76.6001   58.4345    8.1556 N   0  0  0  0  0  0  0  0  0  0  0  0
   77.3929   57.3685    7.8822 C   0  0  0  0  0  0  0  0  0  0  0  0
   78.6959   57.7046    7.6795 N   0  0  0  0  0  0  0  0  0  0  0  0
   66.9863   51.5551    5.7646 O   0  0  0  0  0  0  0  0  0  0  0  0
   67.8716   53.2658    3.9805 O   0  0  0  0  0  0  0  0  0  0  0  0
   69.5599   51.5856    5.3259 O   0  0  0  0  0  0  0  0  0  0  0  0
   67.8094   50.6281    3.4146 O   0  0  0  0  0  0  0  0  0  0  0  0
   76.0667   52.1688    7.3474 O   0  0  0  0  0  0  0  0  0  0  0  0
   75.9498   52.7696   10.0471 H   0  0  0  0  0  0  0  0  0  0  0  0
   78.7439   50.4988    7.5185 H   0  0  0  0  0  0  0  0  0  0  0  0
   79.0039   52.7941    6.4665 H   0  0  0  0  0  0  0  0  0  0  0  0
   78.1406   53.9614    5.4038 H   0  0  0  0  0  0  0  0  0  0  0  0
   80.5789   54.4033    5.5823 H   0  0  0  0  0  0  0  0  0  0  0  0
   80.3501   53.6990    8.3107 H   0  0  0  0  0  0  0  0  0  0  0  0
   82.4375   54.5731    8.4544 H   0  0  0  0  0  0  0  0  0  0  0  0
   79.2004   55.6010    9.0399 H   0  0  0  0  0  0  0  0  0  0  0  0
   81.8432   56.7274    8.9114 H   0  0  0  0  0  0  0  0  0  0  0  0
   80.7179   57.4490    7.1208 H   0  0  0  0  0  0  0  0  0  0  0  0
   74.8367   51.5016    5.3352 H   0  0  0  0  0  0  0  0  0  0  0  0
   78.1227   62.7100    8.3271 H   0  0  0  0  0  0  0  0  0  0  0  0
   69.8520   44.5283    0.5665 H   0  0  0  0  0  0  0  0  0  0  0  0
   68.2776   44.7705   -0.2704 H   0  0  0  0  0  0  0  0  0  0  0  0
   69.7152   45.7076   -0.8101 H   0  0  0  0  0  0  0  0  0  0  0  0
   73.0561   49.2626    6.3231 H   0  0  0  0  0  0  0  0  0  0  0  0
   80.8346   62.6050    6.9103 H   0  0  0  0  0  0  0  0  0  0  0  0
   81.2269   62.3275    8.6432 H   0  0  0  0  0  0  0  0  0  0  0  0
   72.9712   52.1041    6.6282 H   0  0  0  0  0  0  0  0  0  0  0  0
   71.3733   50.2053    5.1783 H   0  0  0  0  0  0  0  0  0  0  0  0
   72.2195   51.8933    3.3599 H   0  0  0  0  0  0  0  0  0  0  0  0
   71.5258   46.2679    0.6703 H   0  0  0  0  0  0  0  0  0  0  0  0
   70.2767   50.0931    2.8946 H   0  0  0  0  0  0  0  0  0  0  0  0
   70.1496   48.9143    4.3138 H   0  0  0  0  0  0  0  0  0  0  0  0
   72.9484   50.2858    2.6333 H   0  0  0  0  0  0  0  0  0  0  0  0
   71.8892   47.7582    3.6582 H   0  0  0  0  0  0  0  0  0  0  0  0
   66.5261   49.2019    4.1234 H   0  0  0  0  0  0  0  0  0  0  0  0
   68.1136   49.1467    4.9081 H   0  0  0  0  0  0  0  0  0  0  0  0
   73.9385   48.1143    4.6213 H   0  0  0  0  0  0  0  0  0  0  0  0
   73.9058   47.2778    2.3362 H   0  0  0  0  0  0  0  0  0  0  0  0
   75.5826   47.6631    2.8490 H   0  0  0  0  0  0  0  0  0  0  0  0
   74.7132   48.7832    1.7373 H   0  0  0  0  0  0  0  0  0  0  0  0
   66.1089   47.6028    2.4824 H   0  0  0  0  0  0  0  0  0  0  0  0
   76.9980   56.3754    7.8313 H   0  0  0  0  0  0  0  0  0  0  0  0
   68.0143   53.9004    4.7274 H   0  0  0  0  0  0  0  0  0  0  0  0
   69.6159   52.2888    6.0209 H   0  0  0  0  0  0  0  0  0  0  0  0
  4  1  2  0
  1  5  1  1
  6  2  2  0
  2  7  1  1
  9  8  1  0
  9  1  1  0
 10  8  1  0
 11 10  1  0
 12 10  1  0
 12 13  1  0
 14 12  1  0
 14 15  1  0
 16 14  1  0
 16 11  1  0
 17 20  1  0
 20  2  1  0
 21 18  1  0
 23 17  1  0
 24 22  1  0
 24 19  2  0
 25 21  1  0
 23 26  1  0
 27 23  1  0
 28 24  1  0
 29 21  2  0
 27 30  1  0
 31 28  1  0
 32 29  1  0
 34 27  1  0
 35 33  1  0
 35 28  2  0
 36 33  1  0
 34 36  1  0
 37 32  2  0
 39 34  1  0
 40 35  1  0
 40 38  1  0
 41 39  1  0
 41 17  1  0
 42 37  1  0
 42 18  1  0
 39 43  1  0
 44 40  2  0
 44 19  1  0
 45 42  2  0
 46 37  1  0
 47 46  2  0
 48 47  1  0
 48 32  1  0
 16 48  1  0
 49  3  2  0
 50  3  1  0
 51  3  1  0
 52 38  1  0
 52  3  1  0
 53  2  1  0
 53  1  1  0
  5 54  1  0
  7 55  1  0
  8 56  1  0
  8 57  1  0
 10 58  1  6
 12 59  1  1
 13 60  1  0
 14 61  1  1
 15 62  1  0
 16 63  1  6
 17 64  1  6
 18 65  1  0
 22 66  1  0
 22 67  1  0
 22 68  1  0
 23 69  1  1
 25 70  1  0
 25 71  1  0
 26 72  1  0
 27 73  1  1
 30 74  1  0
 31 75  1  0
 33 76  1  0
 33 77  1  0
 34 78  1  6
 36 79  1  0
 38 80  1  0
 38 81  1  0
 39 82  1  1
 43 83  1  0
 43 84  1  0
 43 85  1  0
 44 86  1  0
 47 87  1  0
 50 88  1  0
 51 89  1  0
M  END
