
     RDKit          3D

 14 13  0  0  0  0  0  0  0  0999 V2000
  -40.7910   33.0410   19.7441 P   0  0  0  0  0  0  0  0  0  0  0  0
  -41.3313   32.1804   21.0861 O   0  0  0  0  0  0  0  0  0  0  0  0
  -39.4695   33.7077   20.0372 O   0  0  0  0  0  0  0  0  0  0  0  0
  -40.6572   32.0828   18.3707 O   0  0  0  0  0  0  0  0  0  0  0  0
  -41.9766   34.1990   19.5143 O   0  0  0  0  0  0  0  0  0  0  0  0
  -40.4801   31.7065   23.1837 C   0  0  0  0  0  0  0  0  0  0  0  0
  -41.2731   31.1187   23.9597 O   0  0  0  0  0  0  0  0  0  0  0  0
  -40.9713   32.7946   22.2895 C   0  0  0  0  0  0  0  0  0  0  0  0
  -39.1331   31.3698   23.1871 O   0  0  0  0  0  0  0  0  0  0  0  0
  -40.8132   31.1583   18.6901 H   0  0  0  0  0  0  0  0  0  0  0  0
  -41.6858   34.9732   20.0594 H   0  0  0  0  0  0  0  0  0  0  0  0
  -41.8582   33.2902   22.7410 H   0  0  0  0  0  0  0  0  0  0  0  0
  -40.1428   33.5268   22.1696 H   0  0  0  0  0  0  0  0  0  0  0  0
  -38.7803   30.6428   23.7981 H   0  0  0  0  0  0  0  0  0  0  0  0
  2  1  1  0
  3  1  2  0
  4  1  1  0
  5  1  1  0
  7  6  2  0
  8  2  1  0
  8  6  1  0
  9  6  1  0
  4 10  1  0
  5 11  1  0
  8 12  1  0
  8 13  1  0
  9 14  1  0
M  END
