
     RDKit          3D

 14 13  0  0  0  0  0  0  0  0999 V2000
  -28.3042   40.3960    2.8798 P   0  0  0  0  0  0  0  0  0  0  0  0
  -27.0731   41.0792    1.9550 O   0  0  0  0  0  0  0  0  0  0  0  0
  -28.6623   39.0196    2.3781 O   0  0  0  0  0  0  0  0  0  0  0  0
  -27.8923   40.3216    4.5071 O   0  0  0  0  0  0  0  0  0  0  0  0
  -29.6033   41.4335    2.6686 O   0  0  0  0  0  0  0  0  0  0  0  0
  -25.6004   39.8459    3.2607 C   0  0  0  0  0  0  0  0  0  0  0  0
  -24.6698   39.6870    4.0890 O   0  0  0  0  0  0  0  0  0  0  0  0
  -25.8725   41.1935    2.6686 C   0  0  0  0  0  0  0  0  0  0  0  0
  -26.3264   38.7453    2.8298 O   0  0  0  0  0  0  0  0  0  0  0  0
  -28.0514   41.2369    4.8503 H   0  0  0  0  0  0  0  0  0  0  0  0
  -29.6023   42.0094    3.4744 H   0  0  0  0  0  0  0  0  0  0  0  0
  -25.9832   41.9455    3.4794 H   0  0  0  0  0  0  0  0  0  0  0  0
  -25.0122   41.4583    2.0139 H   0  0  0  0  0  0  0  0  0  0  0  0
  -27.3091   38.8281    2.5977 H   0  0  0  0  0  0  0  0  0  0  0  0
  2  1  1  0
  3  1  2  0
  4  1  1  0
  5  1  1  0
  7  6  2  0
  8  2  1  0
  8  6  1  0
  9  6  1  0
  4 10  1  0
  5 11  1  0
  8 12  1  0
  8 13  1  0
  9 14  1  0
M  END
