
     RDKit          3D

 62 66  0  0  0  0  0  0  0  0999 V2000
   31.5713   -1.2081   27.1400 C   0  0  1  0  0  0  0  0  0  0  0  0
   32.0759    0.1523   27.7065 C   0  0  2  0  0  0  0  0  0  0  0  0
   31.3025    1.3510   27.1185 C   0  0  0  0  0  0  0  0  0  0  0  0
   29.8153    1.2462   27.4575 C   0  0  0  0  0  0  0  0  0  0  0  0
   29.2456   -0.1061   27.1039 C   0  0  0  0  0  0  0  0  0  0  0  0
   27.8659   -0.2137   26.8812 C   0  0  0  0  0  0  0  0  0  0  0  0
   27.2899   -1.4502   26.5724 C   0  0  0  0  0  0  0  0  0  0  0  0
   25.9281   -1.5494   26.3111 O   0  0  0  0  0  0  0  0  0  0  0  0
   28.0823   -2.5949   26.5200 C   0  0  0  0  0  0  0  0  0  0  0  0
   29.4510   -2.5089   26.7648 C   0  0  0  0  0  0  0  0  0  0  0  0
   30.0535   -1.2703   27.0469 C   0  0  0  0  0  0  0  0  0  0  0  0
   33.5912    0.3145   27.6175 C   0  0  0  0  0  0  0  0  0  0  0  0
   34.3782    0.1331   28.7668 C   0  0  0  0  0  0  0  0  0  0  0  0
   35.7678    0.2873   28.7120 C   0  0  0  0  0  0  0  0  0  0  0  0
   36.3931    0.6218   27.5127 C   0  0  0  0  0  0  0  0  0  0  0  0
   35.6275    0.7928   26.3619 C   0  0  0  0  0  0  0  0  0  0  0  0
   34.2397    0.6304   26.4078 C   0  0  0  0  0  0  0  0  0  0  0  0
   32.2030   -1.5945   25.8070 C   0  0  0  0  0  0  0  0  0  0  0  0
   33.4363   -2.2648   25.7526 C   0  0  0  0  0  0  0  0  0  0  0  0
   34.0017   -2.6046   24.5305 C   0  0  0  0  0  0  0  0  0  0  0  0
   33.3619   -2.2750   23.3407 C   0  0  0  0  0  0  0  0  0  0  0  0
   32.1320   -1.5961   23.3758 C   0  0  0  0  0  0  0  0  0  0  0  0
   31.5515   -1.2714   24.6040 C   0  0  0  0  0  0  0  0  0  0  0  0
   33.9905   -2.6517   22.1557 O   0  0  0  0  0  0  0  0  0  0  0  0
   35.2786   -2.2222   21.7548 C   0  0  0  0  0  0  0  0  0  0  0  0
   35.3448   -2.2180   20.2272 C   0  0  0  0  0  0  0  0  0  0  0  0
   35.5230   -3.5769   19.6645 N   0  0  0  0  0  0  0  0  0  0  0  0
   36.5406   -3.5915   18.5950 C   0  0  0  0  0  0  0  0  0  0  0  0
   36.0104   -4.4390   17.4393 C   0  0  0  0  0  0  0  0  0  0  0  0
   34.7702   -5.1038   17.9900 C   0  0  0  0  0  0  0  0  0  0  0  0
   34.3043   -4.1287   19.0560 C   0  0  0  0  0  0  0  0  0  0  0  0
   31.8624   -1.9764   27.8925 H   0  0  0  0  0  0  0  0  0  0  0  0
   31.8224    0.1491   28.7926 H   0  0  0  0  0  0  0  0  0  0  0  0
   31.6982    2.2965   27.5501 H   0  0  0  0  0  0  0  0  0  0  0  0
   31.4196    1.4121   26.0190 H   0  0  0  0  0  0  0  0  0  0  0  0
   29.2720    2.0476   26.9102 H   0  0  0  0  0  0  0  0  0  0  0  0
   29.6706    1.4181   28.5461 H   0  0  0  0  0  0  0  0  0  0  0  0
   27.2375    0.6673   26.9350 H   0  0  0  0  0  0  0  0  0  0  0  0
   25.3220   -0.7376   26.3382 H   0  0  0  0  0  0  0  0  0  0  0  0
   27.6374   -3.5531   26.2834 H   0  0  0  0  0  0  0  0  0  0  0  0
   30.0537   -3.4067   26.6998 H   0  0  0  0  0  0  0  0  0  0  0  0
   33.9163   -0.1280   29.7109 H   0  0  0  0  0  0  0  0  0  0  0  0
   36.3605    0.1473   29.6068 H   0  0  0  0  0  0  0  0  0  0  0  0
   37.4680    0.7421   27.4743 H   0  0  0  0  0  0  0  0  0  0  0  0
   36.1105    1.0417   25.4258 H   0  0  0  0  0  0  0  0  0  0  0  0
   33.6805    0.7492   25.4908 H   0  0  0  0  0  0  0  0  0  0  0  0
   33.9788   -2.5021   26.6571 H   0  0  0  0  0  0  0  0  0  0  0  0
   34.9540   -3.1201   24.5080 H   0  0  0  0  0  0  0  0  0  0  0  0
   31.6137   -1.3338   22.4640 H   0  0  0  0  0  0  0  0  0  0  0  0
   30.5964   -0.7612   24.6154 H   0  0  0  0  0  0  0  0  0  0  0  0
   35.4536   -1.1877   22.1213 H   0  0  0  0  0  0  0  0  0  0  0  0
   36.0572   -2.8974   22.1719 H   0  0  0  0  0  0  0  0  0  0  0  0
   36.2259   -1.5932   19.9560 H   0  0  0  0  0  0  0  0  0  0  0  0
   34.4483   -1.7135   19.8007 H   0  0  0  0  0  0  0  0  0  0  0  0
   37.4734   -4.0427   18.9962 H   0  0  0  0  0  0  0  0  0  0  0  0
   36.7815   -2.5714   18.2155 H   0  0  0  0  0  0  0  0  0  0  0  0
   36.7569   -5.1932   17.1078 H   0  0  0  0  0  0  0  0  0  0  0  0
   35.7378   -3.7859   16.5807 H   0  0  0  0  0  0  0  0  0  0  0  0
   33.9984   -5.2548   17.2046 H   0  0  0  0  0  0  0  0  0  0  0  0
   35.0346   -6.0782   18.4573 H   0  0  0  0  0  0  0  0  0  0  0  0
   33.6855   -3.3337   18.5796 H   0  0  0  0  0  0  0  0  0  0  0  0
   33.6980   -4.6561   19.8232 H   0  0  0  0  0  0  0  0  0  0  0  0
  2  1  1  0
  3  2  1  0
  4  3  1  0
  5  4  1  0
  6  5  2  0
  7  6  1  0
  8  7  1  0
  9  7  2  0
 10  9  1  0
 11 10  2  0
 11  5  1  0
 11  1  1  0
  2 12  1  0
 13 12  2  0
 14 13  1  0
 15 14  2  0
 16 15  1  0
 17 12  1  0
 17 16  2  0
  1 18  1  0
 19 18  2  0
 20 19  1  0
 21 20  2  0
 22 21  1  0
 23 18  1  0
 23 22  2  0
 24 21  1  0
 25 24  1  0
 26 25  1  0
 27 26  1  0
 28 27  1  0
 29 28  1  0
 30 29  1  0
 31 30  1  0
 31 27  1  0
  1 32  1  1
  2 33  1  1
  3 34  1  0
  3 35  1  0
  4 36  1  0
  4 37  1  0
  6 38  1  0
  8 39  1  0
  9 40  1  0
 10 41  1  0
 13 42  1  0
 14 43  1  0
 15 44  1  0
 16 45  1  0
 17 46  1  0
 19 47  1  0
 20 48  1  0
 22 49  1  0
 23 50  1  0
 25 51  1  0
 25 52  1  0
 26 53  1  0
 26 54  1  0
 28 55  1  0
 28 56  1  0
 29 57  1  0
 29 58  1  0
 30 59  1  0
 30 60  1  0
 31 61  1  0
 31 62  1  0
M  END
