
     RDKit          3D

 89 91  0  0  0  0  0  0  0  0999 V2000
   90.9578  -12.9489   15.1980 C   0  0  2  0  0  0  0  0  0  0  0  0
   93.3054  -18.1440   21.5811 C   0  0  0  0  0  0  0  0  0  0  0  0
   92.3682  -18.8588   21.9103 O   0  0  0  0  0  0  0  0  0  0  0  0
   91.3462  -11.6710   14.7414 O   0  0  0  0  0  0  0  0  0  0  0  0
   90.5291  -12.9578   16.7080 C   0  0  0  0  0  0  0  0  0  0  0  0
   91.7009  -12.6246   17.6598 C   0  0  0  0  0  0  0  0  0  0  0  0
   89.9669  -14.3447   17.1058 C   0  0  0  0  0  0  0  0  0  0  0  0
   93.7021  -17.0025   22.4489 C   0  0  0  0  0  0  0  0  0  0  0  0
   85.8530   -9.1088   16.3413 P   0  0  1  0  0  0  0  0  0  0  0  0
   87.6186  -11.0401   15.2437 P   0  0  1  0  0  0  0  0  0  0  0  0
   86.2326   -3.5928   17.2724 P   0  0  0  0  0  0  0  0  0  0  0  0
   94.2303  -18.5519   20.1030 S   0  0  0  0  0  0  0  0  0  0  0  0
   94.8076  -16.8812   19.6347 C   0  0  0  0  0  0  0  0  0  0  0  0
   93.6582  -16.0046   19.1449 C   0  0  0  0  0  0  0  0  0  0  0  0
   93.6063  -16.0699   17.6948 N   0  0  0  0  0  0  0  0  0  0  0  0
   94.5125  -15.3552   16.8565 C   0  0  0  0  0  0  0  0  0  0  0  0
   95.2616  -14.4609   17.3362 O   0  0  0  0  0  0  0  0  0  0  0  0
   94.5697  -15.6981   15.3985 C   0  0  0  0  0  0  0  0  0  0  0  0
   94.4626  -14.4686   14.4991 C   0  0  0  0  0  0  0  0  0  0  0  0
   93.3839  -13.5928   14.9280 N   0  0  0  0  0  0  0  0  0  0  0  0
   92.0087  -13.9530   14.8394 C   0  0  0  0  0  0  0  0  0  0  0  0
   91.6711  -15.1005   14.4322 O   0  0  0  0  0  0  0  0  0  0  0  0
   87.9782   -6.5469   20.4807 C   0  0  1  0  0  0  0  0  0  0  0  0
   93.0453   -6.1198   19.4069 N   0  0  0  0  0  0  0  0  0  0  0  0
   85.6636   -8.4778   14.9801 O   0  0  0  0  0  0  0  0  0  0  0  0
   92.2749   -5.3593   20.2439 C   0  0  0  0  0  0  0  0  0  0  0  0
   87.5960   -5.1862   19.9202 C   0  0  2  0  0  0  0  0  0  0  0  0
   84.5473  -10.0725   16.7761 O   0  0  0  0  0  0  0  0  0  0  0  0
   86.9815   -4.4342   20.9370 O   0  0  0  0  0  0  0  0  0  0  0  0
   86.6050   -5.5798   18.8486 C   0  0  2  0  0  0  0  0  0  0  0  0
   90.9437   -5.6322   20.4075 N   0  0  0  0  0  0  0  0  0  0  0  0
   87.3058   -9.9429   16.4723 O   0  0  0  0  0  0  0  0  0  0  0  0
   85.6744   -4.5696   18.5415 O   0  0  0  0  0  0  0  0  0  0  0  0
   90.4037   -6.6710   19.7219 C   0  0  0  0  0  0  0  0  0  0  0  0
   85.8925   -6.7606   19.5225 C   0  0  2  0  0  0  0  0  0  0  0  0
   86.4056  -11.5169   14.4762 O   0  0  0  0  0  0  0  0  0  0  0  0
   86.8426   -7.3959   20.3631 O   0  0  0  0  0  0  0  0  0  0  0  0
   91.1417   -7.4395   18.8858 C   0  0  0  0  0  0  0  0  0  0  0  0
   85.2835   -7.7701   18.5151 C   0  0  0  0  0  0  0  0  0  0  0  0
   88.7672  -10.3660   14.2195 O   0  0  0  0  0  0  0  0  0  0  0  0
   86.1844   -7.8824   17.4517 O   0  0  0  0  0  0  0  0  0  0  0  0
   92.5105   -7.1662   18.7125 C   0  0  0  0  0  0  0  0  0  0  0  0
   93.3382   -7.9366   17.8476 N   0  0  0  0  0  0  0  0  0  0  0  0
   88.3005  -12.3384   16.0823 O   0  0  0  0  0  0  0  0  0  0  0  0
   90.3657   -8.4010   18.3423 N   0  0  0  0  0  0  0  0  0  0  0  0
   85.1644   -2.5565   17.0219 O   0  0  0  0  0  0  0  0  0  0  0  0
   89.1406   -8.1666   18.8926 C   0  0  0  0  0  0  0  0  0  0  0  0
   86.4710   -4.5027   15.8762 O   0  0  0  0  0  0  0  0  0  0  0  0
   89.1276   -7.1064   19.7433 N   0  0  0  0  0  0  0  0  0  0  0  0
   87.6748   -2.8562   17.7239 O   0  0  0  0  0  0  0  0  0  0  0  0
   89.4011  -11.9181   16.8762 C   0  0  0  0  0  0  0  0  0  0  0  0
   90.0670  -13.2278   14.5929 H   0  0  0  0  0  0  0  0  0  0  0  0
   91.9666  -11.2568   15.3891 H   0  0  0  0  0  0  0  0  0  0  0  0
   92.0571  -11.5815   17.5389 H   0  0  0  0  0  0  0  0  0  0  0  0
   91.3758  -12.7276   18.7177 H   0  0  0  0  0  0  0  0  0  0  0  0
   92.5519  -13.3170   17.5053 H   0  0  0  0  0  0  0  0  0  0  0  0
   90.7738  -15.1079   17.1039 H   0  0  0  0  0  0  0  0  0  0  0  0
   89.1816  -14.6843   16.3970 H   0  0  0  0  0  0  0  0  0  0  0  0
   89.5297  -14.3175   18.1275 H   0  0  0  0  0  0  0  0  0  0  0  0
   94.1750  -16.2037   21.8402 H   0  0  0  0  0  0  0  0  0  0  0  0
   94.4461  -17.3364   23.2035 H   0  0  0  0  0  0  0  0  0  0  0  0
   92.8191  -16.6112   22.9956 H   0  0  0  0  0  0  0  0  0  0  0  0
   95.3650  -16.3773   20.4456 H   0  0  0  0  0  0  0  0  0  0  0  0
   95.5630  -17.0146   18.8308 H   0  0  0  0  0  0  0  0  0  0  0  0
   92.6893  -16.3412   19.5733 H   0  0  0  0  0  0  0  0  0  0  0  0
   93.8120  -14.9518   19.4675 H   0  0  0  0  0  0  0  0  0  0  0  0
   92.8826  -16.6861   17.2606 H   0  0  0  0  0  0  0  0  0  0  0  0
   93.7647  -16.4166   15.1373 H   0  0  0  0  0  0  0  0  0  0  0  0
   95.5340  -16.2101   15.1938 H   0  0  0  0  0  0  0  0  0  0  0  0
   94.2968  -14.7821   13.4458 H   0  0  0  0  0  0  0  0  0  0  0  0
   95.4237  -13.9098   14.5362 H   0  0  0  0  0  0  0  0  0  0  0  0
   93.6595  -12.6613   15.3090 H   0  0  0  0  0  0  0  0  0  0  0  0
   88.2553   -6.4592   21.5542 H   0  0  0  0  0  0  0  0  0  0  0  0
   92.7224   -4.5353   20.7823 H   0  0  0  0  0  0  0  0  0  0  0  0
   88.4743   -4.6430   19.5015 H   0  0  0  0  0  0  0  0  0  0  0  0
   84.9155  -10.7205   17.4283 H   0  0  0  0  0  0  0  0  0  0  0  0
   86.9745   -3.4912   20.6270 H   0  0  0  0  0  0  0  0  0  0  0  0
   87.1944   -5.9106   17.9638 H   0  0  0  0  0  0  0  0  0  0  0  0
   85.0694   -6.3820   20.1702 H   0  0  0  0  0  0  0  0  0  0  0  0
   85.1306   -8.7479   19.0231 H   0  0  0  0  0  0  0  0  0  0  0  0
   84.3113   -7.3816   18.1406 H   0  0  0  0  0  0  0  0  0  0  0  0
   88.8916  -11.0378   13.5025 H   0  0  0  0  0  0  0  0  0  0  0  0
   93.1692   -8.9589   17.7165 H   0  0  0  0  0  0  0  0  0  0  0  0
   94.1285   -7.4860   17.3352 H   0  0  0  0  0  0  0  0  0  0  0  0
   88.2807   -8.7860   18.6895 H   0  0  0  0  0  0  0  0  0  0  0  0
   87.4395   -4.7095   15.8632 H   0  0  0  0  0  0  0  0  0  0  0  0
   87.8593   -3.1978   18.6350 H   0  0  0  0  0  0  0  0  0  0  0  0
   89.0733  -11.8805   17.9383 H   0  0  0  0  0  0  0  0  0  0  0  0
   89.7933  -10.9039   16.6267 H   0  0  0  0  0  0  0  0  0  0  0  0
  3  2  2  0
  1  4  1  0
  5  1  1  0
  5  6  1  0
  7  5  1  0
  8  2  1  0
 12  2  1  0
 13 12  1  0
 14 13  1  0
 15 14  1  0
 16 15  1  0
 17 16  2  0
 18 16  1  0
 19 18  1  0
 20 19  1  0
 21  1  1  0
 21 20  1  0
 22 21  2  0
 25  9  2  0
 26 24  2  0
 27 23  1  0
  9 28  1  1
 27 29  1  0
 30 27  1  0
 31 26  1  0
 32  9  1  0
 10 32  1  1
 30 33  1  0
 33 11  1  0
 34 31  2  0
 35 30  1  0
 36 10  2  0
 37 35  1  0
 37 23  1  0
 38 34  1  0
 35 39  1  0
 40 10  1  0
 41  9  1  0
 41 39  1  0
 42 38  2  0
 42 24  1  0
 43 42  1  0
 44 10  1  0
 45 38  1  0
 46 11  2  0
 47 45  2  0
 48 11  1  0
 49 47  1  0
 49 34  1  0
 23 49  1  0
 50 11  1  0
 51 44  1  0
 51  5  1  0
  1 52  1  6
  4 53  1  0
  6 54  1  0
  6 55  1  0
  6 56  1  0
  7 57  1  0
  7 58  1  0
  7 59  1  0
  8 60  1  0
  8 61  1  0
  8 62  1  0
 13 63  1  0
 13 64  1  0
 14 65  1  0
 14 66  1  0
 15 67  1  0
 18 68  1  0
 18 69  1  0
 19 70  1  0
 19 71  1  0
 20 72  1  0
 23 73  1  1
 26 74  1  0
 27 75  1  6
 28 76  1  0
 29 77  1  0
 30 78  1  6
 35 79  1  1
 39 80  1  0
 39 81  1  0
 40 82  1  0
 43 83  1  0
 43 84  1  0
 47 85  1  0
 48 86  1  0
 50 87  1  0
 51 88  1  0
 51 89  1  0
M  END
