
     RDKit          3D

 89 91  0  0  0  0  0  0  0  0999 V2000
   82.8975   12.0486   15.0908 C   0  0  2  0  0  0  0  0  0  0  0  0
   81.6847   18.1017   22.3167 C   0  0  0  0  0  0  0  0  0  0  0  0
   82.2768   19.1103   22.6788 O   0  0  0  0  0  0  0  0  0  0  0  0
   82.3893   10.7681   14.7917 O   0  0  0  0  0  0  0  0  0  0  0  0
   83.7556   12.0842   16.4038 C   0  0  0  0  0  0  0  0  0  0  0  0
   82.9484   11.7029   17.6654 C   0  0  0  0  0  0  0  0  0  0  0  0
   84.3442   13.4983   16.6220 C   0  0  0  0  0  0  0  0  0  0  0  0
   81.5307   16.9729   23.2685 C   0  0  0  0  0  0  0  0  0  0  0  0
   88.5685    8.7047   14.9709 P   0  0  1  0  0  0  0  0  0  0  0  0
   86.8274   10.8861   14.5140 P   0  0  1  0  0  0  0  0  0  0  0  0
   89.8710    3.4426   16.3041 P   0  0  0  0  0  0  0  0  0  0  0  0
   80.9627   18.0633   20.6751 S   0  0  0  0  0  0  0  0  0  0  0  0
   80.5928   16.2816   20.4815 C   0  0  0  0  0  0  0  0  0  0  0  0
   81.6545   15.6154   19.6178 C   0  0  0  0  0  0  0  0  0  0  0  0
   81.2365   15.6821   18.2281 N   0  0  0  0  0  0  0  0  0  0  0  0
   80.2142   14.8346   17.7060 C   0  0  0  0  0  0  0  0  0  0  0  0
   79.7332   13.9025   18.4072 O   0  0  0  0  0  0  0  0  0  0  0  0
   79.7169   15.0624   16.3148 C   0  0  0  0  0  0  0  0  0  0  0  0
   79.4377   13.7420   15.6011 C   0  0  0  0  0  0  0  0  0  0  0  0
   80.5722   12.8362   15.7106 N   0  0  0  0  0  0  0  0  0  0  0  0
   81.8047   13.0683   15.0340 C   0  0  0  0  0  0  0  0  0  0  0  0
   81.9739   14.1180   14.3515 O   0  0  0  0  0  0  0  0  0  0  0  0
   86.1306    4.7675   17.6787 C   0  0  1  0  0  0  0  0  0  0  0  0
   81.1593    5.9323   18.5483 N   0  0  0  0  0  0  0  0  0  0  0  0
   88.8742    8.7084   13.4921 O   0  0  0  0  0  0  0  0  0  0  0  0
   82.0077    5.1506   19.2826 C   0  0  0  0  0  0  0  0  0  0  0  0
   86.5908    3.7233   16.6527 C   0  0  2  0  0  0  0  0  0  0  0  0
   89.8528    9.2922   15.8824 O   0  0  0  0  0  0  0  0  0  0  0  0
   87.2217    2.6458   17.3066 O   0  0  0  0  0  0  0  0  0  0  0  0
   87.5944    4.5185   15.8615 C   0  0  2  0  0  0  0  0  0  0  0  0
   83.3031    4.9714   18.8878 N   0  0  0  0  0  0  0  0  0  0  0  0
   87.1457    9.4896   15.3850 O   0  0  0  0  0  0  0  0  0  0  0  0
   88.5880    3.7395   15.2380 O   0  0  0  0  0  0  0  0  0  0  0  0
   83.7280    5.5817   17.7540 C   0  0  0  0  0  0  0  0  0  0  0  0
   88.2253    5.3588   16.9737 C   0  0  2  0  0  0  0  0  0  0  0  0
   88.0525   11.6406   14.0486 O   0  0  0  0  0  0  0  0  0  0  0  0
   87.2050    5.6656   17.9013 O   0  0  0  0  0  0  0  0  0  0  0  0
   82.9136    6.3662   17.0051 C   0  0  0  0  0  0  0  0  0  0  0  0
   88.9003    6.6431   16.4663 C   0  0  0  0  0  0  0  0  0  0  0  0
   85.7810   10.5382   13.2415 O   0  0  0  0  0  0  0  0  0  0  0  0
   88.1350    7.1416   15.4076 O   0  0  0  0  0  0  0  0  0  0  0  0
   81.5750    6.5551   17.4064 C   0  0  0  0  0  0  0  0  0  0  0  0
   80.6563    7.3610   16.6746 N   0  0  0  0  0  0  0  0  0  0  0  0
   86.0093   11.8184   15.6549 O   0  0  0  0  0  0  0  0  0  0  0  0
   83.5946    6.8455   15.9400 N   0  0  0  0  0  0  0  0  0  0  0  0
   89.3887    2.7606   17.5661 O   0  0  0  0  0  0  0  0  0  0  0  0
   84.8387    6.3029   16.0920 C   0  0  0  0  0  0  0  0  0  0  0  0
   90.6226    4.8978   16.6708 O   0  0  0  0  0  0  0  0  0  0  0  0
   84.9496    5.5127   17.1961 N   0  0  0  0  0  0  0  0  0  0  0  0
   90.9504    2.4501   15.4872 O   0  0  0  0  0  0  0  0  0  0  0  0
   84.9239   11.0985   16.2171 C   0  0  0  0  0  0  0  0  0  0  0  0
   83.5715   12.3046   14.2437 H   0  0  0  0  0  0  0  0  0  0  0  0
   83.1342   10.1216   14.7341 H   0  0  0  0  0  0  0  0  0  0  0  0
   83.5693   11.8414   18.5770 H   0  0  0  0  0  0  0  0  0  0  0  0
   82.0491   12.3432   17.7715 H   0  0  0  0  0  0  0  0  0  0  0  0
   82.6348   10.6388   17.6523 H   0  0  0  0  0  0  0  0  0  0  0  0
   84.5080   14.0089   15.6490 H   0  0  0  0  0  0  0  0  0  0  0  0
   85.3215   13.4570   17.1491 H   0  0  0  0  0  0  0  0  0  0  0  0
   83.6501   14.1284   17.2197 H   0  0  0  0  0  0  0  0  0  0  0  0
   80.6655   17.1508   23.9407 H   0  0  0  0  0  0  0  0  0  0  0  0
   82.4346   16.8880   23.9093 H   0  0  0  0  0  0  0  0  0  0  0  0
   81.4285   16.0148   22.7173 H   0  0  0  0  0  0  0  0  0  0  0  0
   80.4613   15.7180   21.4183 H   0  0  0  0  0  0  0  0  0  0  0  0
   79.5972   16.2142   19.9935 H   0  0  0  0  0  0  0  0  0  0  0  0
   82.6402   16.1143   19.7437 H   0  0  0  0  0  0  0  0  0  0  0  0
   81.7848   14.5526   19.9177 H   0  0  0  0  0  0  0  0  0  0  0  0
   81.7180   16.3623   17.5976 H   0  0  0  0  0  0  0  0  0  0  0  0
   80.4504   15.6567   15.7308 H   0  0  0  0  0  0  0  0  0  0  0  0
   78.7780   15.6540   16.3640 H   0  0  0  0  0  0  0  0  0  0  0  0
   79.2091   13.9319   14.5301 H   0  0  0  0  0  0  0  0  0  0  0  0
   78.5409   13.2645   16.0541 H   0  0  0  0  0  0  0  0  0  0  0  0
   80.4437   11.9821   16.2960 H   0  0  0  0  0  0  0  0  0  0  0  0
   85.8682    4.2709   18.6383 H   0  0  0  0  0  0  0  0  0  0  0  0
   81.6505    4.6707   20.1832 H   0  0  0  0  0  0  0  0  0  0  0  0
   85.7514    3.3668   16.0142 H   0  0  0  0  0  0  0  0  0  0  0  0
   89.4322    9.7777   16.6363 H   0  0  0  0  0  0  0  0  0  0  0  0
   88.1325    2.5658   16.9228 H   0  0  0  0  0  0  0  0  0  0  0  0
   87.0256    5.1506   15.1411 H   0  0  0  0  0  0  0  0  0  0  0  0
   88.9964    4.7571   17.5081 H   0  0  0  0  0  0  0  0  0  0  0  0
   88.9640    7.3649   17.3119 H   0  0  0  0  0  0  0  0  0  0  0  0
   89.9233    6.4016   16.1017 H   0  0  0  0  0  0  0  0  0  0  0  0
   84.9352   10.2645   13.6780 H   0  0  0  0  0  0  0  0  0  0  0  0
   80.9536    7.8474   15.7995 H   0  0  0  0  0  0  0  0  0  0  0  0
   79.6730    7.4747   17.0069 H   0  0  0  0  0  0  0  0  0  0  0  0
   85.6471    6.4838   15.3955 H   0  0  0  0  0  0  0  0  0  0  0  0
   91.1863    5.0986   15.8818 H   0  0  0  0  0  0  0  0  0  0  0  0
   91.7174    2.3477   16.1055 H   0  0  0  0  0  0  0  0  0  0  0  0
   85.2428   10.6931   17.2028 H   0  0  0  0  0  0  0  0  0  0  0  0
   84.5768   10.2329   15.6040 H   0  0  0  0  0  0  0  0  0  0  0  0
  3  2  2  0
  1  4  1  0
  5  1  1  0
  5  6  1  0
  7  5  1  0
  8  2  1  0
 12  2  1  0
 13 12  1  0
 14 13  1  0
 15 14  1  0
 16 15  1  0
 17 16  2  0
 18 16  1  0
 19 18  1  0
 20 19  1  0
 21 20  1  0
 21  1  1  0
 22 21  2  0
 25  9  2  0
 26 24  2  0
 27 23  1  0
  9 28  1  1
 27 29  1  0
 30 27  1  0
 31 26  1  0
 10 32  1  1
 32  9  1  0
 33 11  1  0
 30 33  1  0
 34 31  2  0
 35 30  1  0
 36 10  2  0
 37 23  1  0
 37 35  1  0
 38 34  1  0
 35 39  1  0
 40 10  1  0
 41  9  1  0
 41 39  1  0
 42 24  1  0
 42 38  2  0
 43 42  1  0
 44 10  1  0
 45 38  1  0
 46 11  2  0
 47 45  2  0
 48 11  1  0
 49 34  1  0
 23 49  1  0
 49 47  1  0
 50 11  1  0
 51 44  1  0
 51  5  1  0
  1 52  1  6
  4 53  1  0
  6 54  1  0
  6 55  1  0
  6 56  1  0
  7 57  1  0
  7 58  1  0
  7 59  1  0
  8 60  1  0
  8 61  1  0
  8 62  1  0
 13 63  1  0
 13 64  1  0
 14 65  1  0
 14 66  1  0
 15 67  1  0
 18 68  1  0
 18 69  1  0
 19 70  1  0
 19 71  1  0
 20 72  1  0
 23 73  1  1
 26 74  1  0
 27 75  1  6
 28 76  1  0
 29 77  1  0
 30 78  1  6
 35 79  1  1
 39 80  1  0
 39 81  1  0
 40 82  1  0
 43 83  1  0
 43 84  1  0
 47 85  1  0
 48 86  1  0
 50 87  1  0
 51 88  1  0
 51 89  1  0
M  END
