
     RDKit          3D

 52 54  0  0  0  0  0  0  0  0999 V2000
   -6.0945    8.7429   42.9907 N   0  0  0  0  0  0  0  0  0  0  0  0
   -4.9541    8.3821   43.8354 C   0  0  2  0  0  0  0  0  0  0  0  0
   -3.6847    8.4765   43.0668 C   0  0  0  0  0  0  0  0  0  0  0  0
   -2.7712    7.6164   43.2007 O   0  0  0  0  0  0  0  0  0  0  0  0
   -3.5041    9.6236   42.2621 N   0  0  0  0  0  0  0  0  0  0  0  0
   -0.9503    9.2577   42.1788 O   0  0  0  0  0  0  0  0  0  0  0  0
   -1.8302   11.3897   41.3167 O   0  0  0  0  0  0  0  0  0  0  0  0
   -5.0484    6.9493   44.3795 C   0  0  0  0  0  0  0  0  0  0  0  0
   -2.0622    9.9141   41.4207 S   0  0  0  0  0  0  0  0  0  0  0  0
   -6.3308    6.2834   44.0082 C   0  0  0  0  0  0  0  0  0  0  0  0
   -6.5849    5.9628   42.6482 N   0  0  0  0  0  0  0  0  0  0  0  0
   -7.1836    5.9988   44.8900 O   0  0  0  0  0  0  0  0  0  0  0  0
   -2.4038    7.8711   39.9477 C   0  0  0  0  0  0  0  0  0  0  0  0
   -2.2070    9.2642   39.8808 O   0  0  0  0  0  0  0  0  0  0  0  0
   -2.8567    7.3948   38.5733 C   0  0  1  0  0  0  0  0  0  0  0  0
   -3.9174    8.2102   38.1047 O   0  0  0  0  0  0  0  0  0  0  0  0
   -1.7358    7.4561   37.5410 C   0  0  1  0  0  0  0  0  0  0  0  0
   -0.9287    6.3052   37.5803 O   0  0  0  0  0  0  0  0  0  0  0  0
   -2.5290    7.5769   36.2602 C   0  0  1  0  0  0  0  0  0  0  0  0
   -2.9189    6.3063   35.7786 O   0  0  0  0  0  0  0  0  0  0  0  0
   -3.7594    8.3737   36.7052 C   0  0  2  0  0  0  0  0  0  0  0  0
   -2.1356   11.8361   33.2129 N   0  0  0  0  0  0  0  0  0  0  0  0
   -1.9917   10.4756   33.2006 C   0  0  0  0  0  0  0  0  0  0  0  0
   -2.4774    9.7173   34.2307 N   0  0  0  0  0  0  0  0  0  0  0  0
   -3.0967   10.3504   35.2617 C   0  0  0  0  0  0  0  0  0  0  0  0
   -3.2491   11.6953   35.2973 C   0  0  0  0  0  0  0  0  0  0  0  0
   -2.7609   12.4740   34.2451 C   0  0  0  0  0  0  0  0  0  0  0  0
   -2.9094   13.8886   34.2207 N   0  0  0  0  0  0  0  0  0  0  0  0
   -3.9050   12.0647   36.4193 N   0  0  0  0  0  0  0  0  0  0  0  0
   -4.1335   10.8773   37.0540 C   0  0  0  0  0  0  0  0  0  0  0  0
   -3.6541    9.8043   36.3603 N   0  0  0  0  0  0  0  0  0  0  0  0
   -6.9590    8.8156   43.5743 H   0  0  0  0  0  0  0  0  0  0  0  0
   -5.9296    9.6753   42.5450 H   0  0  0  0  0  0  0  0  0  0  0  0
   -6.2492    8.0243   42.2459 H   0  0  0  0  0  0  0  0  0  0  0  0
   -4.9141    9.0924   44.6929 H   0  0  0  0  0  0  0  0  0  0  0  0
   -4.2363   10.3684   42.2406 H   0  0  0  0  0  0  0  0  0  0  0  0
   -4.1875    6.3481   44.0111 H   0  0  0  0  0  0  0  0  0  0  0  0
   -4.9831    6.9664   45.4902 H   0  0  0  0  0  0  0  0  0  0  0  0
   -6.2191    6.5607   41.8743 H   0  0  0  0  0  0  0  0  0  0  0  0
   -7.1568    5.1236   42.4054 H   0  0  0  0  0  0  0  0  0  0  0  0
   -1.5137    7.2783   40.2637 H   0  0  0  0  0  0  0  0  0  0  0  0
   -3.2112    7.6689   40.6836 H   0  0  0  0  0  0  0  0  0  0  0  0
   -3.2263    6.3496   38.6775 H   0  0  0  0  0  0  0  0  0  0  0  0
   -1.1146    8.3711   37.6767 H   0  0  0  0  0  0  0  0  0  0  0  0
   -1.5240    5.5564   37.8454 H   0  0  0  0  0  0  0  0  0  0  0  0
   -1.9484    8.1062   35.4733 H   0  0  0  0  0  0  0  0  0  0  0  0
   -2.7730    6.2642   34.7979 H   0  0  0  0  0  0  0  0  0  0  0  0
   -4.6669    7.9609   36.2104 H   0  0  0  0  0  0  0  0  0  0  0  0
   -1.4932    9.9960   32.3696 H   0  0  0  0  0  0  0  0  0  0  0  0
   -3.1083   14.4224   35.0960 H   0  0  0  0  0  0  0  0  0  0  0  0
   -2.8198   14.4113   33.3213 H   0  0  0  0  0  0  0  0  0  0  0  0
   -4.6322   10.8105   38.0063 H   0  0  0  0  0  0  0  0  0  0  0  0
  2  1  1  0
  3  2  1  0
  4  3  2  0
  5  3  1  0
  8  2  1  0
  9  7  2  0
  9  6  2  0
  9  5  1  0
 10  8  1  0
 11 10  1  0
 12 10  2  0
 14 13  1  0
 14  9  1  0
 15 13  1  0
 16 15  1  0
 17 15  1  0
 17 18  1  0
 19 17  1  0
 19 20  1  0
 21 19  1  0
 21 16  1  0
 23 22  2  0
 24 23  1  0
 25 24  2  0
 26 25  1  0
 27 26  2  0
 27 22  1  0
 28 27  1  0
 29 26  1  0
 30 29  2  0
 31 30  1  0
 31 25  1  0
 21 31  1  0
  1 32  1  0
  1 33  1  0
  1 34  1  0
  2 35  1  1
  5 36  1  0
  8 37  1  0
  8 38  1  0
 11 39  1  0
 11 40  1  0
 13 41  1  0
 13 42  1  0
 15 43  1  1
 17 44  1  1
 18 45  1  0
 19 46  1  6
 20 47  1  0
 21 48  1  6
 23 49  1  0
 28 50  1  0
 28 51  1  0
 30 52  1  0
M  CHG  1   1   1
M  END
