
     RDKit          3D

 23 23  0  0  0  0  0  0  0  0999 V2000
   76.0448   27.5385   42.0078 N   0  0  0  0  0  0  0  0  0  0  0  0
   77.1285   26.5478   42.0481 C   0  0  2  0  0  0  0  0  0  0  0  0
   77.2166   25.9284   43.4290 C   0  0  0  0  0  0  0  0  0  0  0  0
   78.4674   27.2106   41.6430 C   0  0  0  0  0  0  0  0  0  0  0  0
   78.4481   27.7072   40.2118 C   0  0  0  0  0  0  0  0  0  0  0  0
   78.6614   26.9547   39.0773 C   0  0  0  0  0  0  0  0  0  0  0  0
   78.0409   28.9272   39.6912 C   0  0  0  0  0  0  0  0  0  0  0  0
   77.6363   30.1649   40.4251 C   0  0  0  0  0  0  0  0  0  0  0  0
   78.4166   27.6670   37.9626 N   0  0  0  0  0  0  0  0  0  0  0  0
   79.0568   25.6297   39.0793 O   0  0  0  0  0  0  0  0  0  0  0  0
   78.0479   28.8491   38.3743 O   0  0  0  0  0  0  0  0  0  0  0  0
   77.2022   24.6761   43.5697 O   0  0  0  0  0  0  0  0  0  0  0  0
   77.2568   26.7384   44.5542 O   0  0  0  0  0  0  0  0  0  0  0  0
   75.7481   27.6671   41.0142 H   0  0  0  0  0  0  0  0  0  0  0  0
   75.2041   27.1301   42.4783 H   0  0  0  0  0  0  0  0  0  0  0  0
   76.9009   25.7284   41.3286 H   0  0  0  0  0  0  0  0  0  0  0  0
   79.2936   26.4736   41.7426 H   0  0  0  0  0  0  0  0  0  0  0  0
   78.6951   28.0539   42.3296 H   0  0  0  0  0  0  0  0  0  0  0  0
   78.0683   31.0530   39.9189 H   0  0  0  0  0  0  0  0  0  0  0  0
   76.5328   30.2713   40.4515 H   0  0  0  0  0  0  0  0  0  0  0  0
   78.0193   30.1165   41.4653 H   0  0  0  0  0  0  0  0  0  0  0  0
   79.1885   25.1292   38.2089 H   0  0  0  0  0  0  0  0  0  0  0  0
   76.6004   26.6065   45.3144 H   0  0  0  0  0  0  0  0  0  0  0  0
  2  1  1  0
  3  2  1  0
  4  2  1  0
  5  4  1  0
  6  5  1  0
  7  5  2  0
  8  7  1  0
  9  6  2  0
 10  6  1  0
 11  9  1  0
 11  7  1  0
 12  3  2  0
 13  3  1  0
  1 14  1  0
  1 15  1  0
  2 16  1  6
  4 17  1  0
  4 18  1  0
  8 19  1  0
  8 20  1  0
  8 21  1  0
 10 22  1  0
 13 23  1  0
M  END
