
     RDKit          3D

 37 38  0  0  0  0  0  0  0  0999 V2000
    6.3470   -5.4806  -10.0275 N   0  0  0  0  0  0  0  0  0  0  0  0
    5.9202   -4.1957  -10.5960 C   0  0  2  0  0  0  0  0  0  0  0  0
   11.4201   -3.3782  -14.0177 C   0  0  0  0  0  0  0  0  0  0  0  0
    7.7903   -3.4718  -13.9909 C   0  0  0  0  0  0  0  0  0  0  0  0
    7.6560   -2.0331  -11.9480 C   0  0  0  0  0  0  0  0  0  0  0  0
   11.6123   -3.9210  -12.6002 C   0  0  2  0  0  0  0  0  0  0  0  0
   10.7290   -5.1586  -12.4106 C   0  0  1  0  0  0  0  0  0  0  0  0
    9.1753   -4.0459  -14.1499 C   0  0  2  0  0  0  0  0  0  0  0  0
    9.2842   -4.8882  -12.8724 C   0  0  2  0  0  0  0  0  0  0  0  0
    7.5751   -3.4511  -12.4626 C   0  0  2  0  0  0  0  0  0  0  0  0
    4.4522   -4.0014  -10.3797 C   0  0  0  0  0  0  0  0  0  0  0  0
    3.8351   -3.0406  -10.9094 O   0  0  0  0  0  0  0  0  0  0  0  0
    8.7583   -1.5543  -11.5709 O   0  0  0  0  0  0  0  0  0  0  0  0
    6.5223   -1.2392  -11.9170 O   0  0  0  0  0  0  0  0  0  0  0  0
   11.2421   -2.9381  -11.6642 O   0  0  0  0  0  0  0  0  0  0  0  0
   11.2810   -6.2762  -13.0639 O   0  0  0  0  0  0  0  0  0  0  0  0
   10.0857   -2.9568  -14.1938 O   0  0  0  0  0  0  0  0  0  0  0  0
    8.6050   -4.1992  -11.8580 O   0  0  0  0  0  0  0  0  0  0  0  0
    6.2161   -4.0969  -12.1133 C   0  0  0  0  0  0  0  0  0  0  0  0
    3.7663   -4.9061   -9.5893 O   0  0  0  0  0  0  0  0  0  0  0  0
    6.1786   -6.2606  -10.7038 H   0  0  0  0  0  0  0  0  0  0  0  0
    7.3680   -5.4450   -9.8084 H   0  0  0  0  0  0  0  0  0  0  0  0
    6.4312   -3.3728  -10.0511 H   0  0  0  0  0  0  0  0  0  0  0  0
   11.7126   -4.1204  -14.7930 H   0  0  0  0  0  0  0  0  0  0  0  0
   12.0841   -2.4988  -14.1558 H   0  0  0  0  0  0  0  0  0  0  0  0
    7.0668   -4.1448  -14.5046 H   0  0  0  0  0  0  0  0  0  0  0  0
    7.6994   -2.4665  -14.4619 H   0  0  0  0  0  0  0  0  0  0  0  0
   12.6788   -4.2087  -12.4484 H   0  0  0  0  0  0  0  0  0  0  0  0
   10.7095   -5.4055  -11.3257 H   0  0  0  0  0  0  0  0  0  0  0  0
    9.2578   -4.6649  -15.0717 H   0  0  0  0  0  0  0  0  0  0  0  0
    8.7720   -5.8659  -13.0290 H   0  0  0  0  0  0  0  0  0  0  0  0
    6.4590   -0.4463  -11.2899 H   0  0  0  0  0  0  0  0  0  0  0  0
   11.9827   -2.2775  -11.6353 H   0  0  0  0  0  0  0  0  0  0  0  0
   11.1068   -6.1905  -14.0365 H   0  0  0  0  0  0  0  0  0  0  0  0
    6.1625   -5.1167  -12.5563 H   0  0  0  0  0  0  0  0  0  0  0  0
    5.4246   -3.5013  -12.6208 H   0  0  0  0  0  0  0  0  0  0  0  0
    3.8791   -5.9040   -9.7226 H   0  0  0  0  0  0  0  0  0  0  0  0
  2  1  1  0
  6  3  1  0
  7  6  1  0
  8  4  1  0
  9  7  1  0
  9  8  1  0
 10  5  1  0
 10  4  1  0
 11  2  1  0
 12 11  2  0
 13  5  2  0
 14  5  1  0
  6 15  1  0
  7 16  1  0
 17  8  1  0
 17  3  1  0
  9 18  1  0
 18 10  1  0
 10 19  1  6
 19  2  1  0
 20 11  1  0
  1 21  1  0
  1 22  1  0
  2 23  1  1
  3 24  1  0
  3 25  1  0
  4 26  1  0
  4 27  1  0
  6 28  1  1
  7 29  1  1
  8 30  1  6
  9 31  1  6
 14 32  1  0
 15 33  1  0
 16 34  1  0
 19 35  1  0
 19 36  1  0
 20 37  1  0
M  END
