
     RDKit          3D

 37 38  0  0  0  0  0  0  0  0999 V2000
    6.2369  -14.0631   19.0281 N   0  0  0  0  0  0  0  0  0  0  0  0
    5.9481  -15.3300   19.7070 C   0  0  2  0  0  0  0  0  0  0  0  0
   11.3504  -15.4282   23.3780 C   0  0  0  0  0  0  0  0  0  0  0  0
    7.7236  -15.5645   23.2169 C   0  0  0  0  0  0  0  0  0  0  0  0
    7.8227  -17.1337   21.2850 C   0  0  0  0  0  0  0  0  0  0  0  0
   11.5706  -14.9184   21.9518 C   0  0  2  0  0  0  0  0  0  0  0  0
   10.6109  -13.7542   21.6874 C   0  0  1  0  0  0  0  0  0  0  0  0
    9.0665  -14.9074   23.3950 C   0  0  2  0  0  0  0  0  0  0  0  0
    9.1665  -14.1156   22.0870 C   0  0  2  0  0  0  0  0  0  0  0  0
    7.5864  -15.6972   21.6863 C   0  0  2  0  0  0  0  0  0  0  0  0
    4.5341  -15.7682   19.4715 C   0  0  0  0  0  0  0  0  0  0  0  0
    4.0931  -16.8463   19.9497 O   0  0  0  0  0  0  0  0  0  0  0  0
    8.9914  -17.5517   21.0741 O   0  0  0  0  0  0  0  0  0  0  0  0
    6.7574  -18.0128   21.1916 O   0  0  0  0  0  0  0  0  0  0  0  0
   11.3191  -15.9527   21.0322 O   0  0  0  0  0  0  0  0  0  0  0  0
   11.0511  -12.5955   22.3551 O   0  0  0  0  0  0  0  0  0  0  0  0
   10.0406  -15.9350   23.5095 O   0  0  0  0  0  0  0  0  0  0  0  0
    8.5758  -14.8933   21.0782 O   0  0  0  0  0  0  0  0  0  0  0  0
    6.1928  -15.2082   21.2291 C   0  0  0  0  0  0  0  0  0  0  0  0
    3.7018  -14.9543   18.7251 O   0  0  0  0  0  0  0  0  0  0  0  0
    5.6747  -13.2926   19.4591 H   0  0  0  0  0  0  0  0  0  0  0  0
    5.9592  -14.1427   18.0224 H   0  0  0  0  0  0  0  0  0  0  0  0
    6.6035  -16.1172   19.2778 H   0  0  0  0  0  0  0  0  0  0  0  0
   12.0644  -16.2560   23.5734 H   0  0  0  0  0  0  0  0  0  0  0  0
   11.5593  -14.6466   24.1414 H   0  0  0  0  0  0  0  0  0  0  0  0
    6.9423  -14.8953   23.6437 H   0  0  0  0  0  0  0  0  0  0  0  0
    7.6608  -16.5376   23.7554 H   0  0  0  0  0  0  0  0  0  0  0  0
   12.6196  -14.5575   21.8394 H   0  0  0  0  0  0  0  0  0  0  0  0
   10.6292  -13.5256   20.5989 H   0  0  0  0  0  0  0  0  0  0  0  0
    9.0803  -14.2483   24.2925 H   0  0  0  0  0  0  0  0  0  0  0  0
    8.5803  -13.1719   22.1814 H   0  0  0  0  0  0  0  0  0  0  0  0
    6.9033  -18.9822   20.9369 H   0  0  0  0  0  0  0  0  0  0  0  0
   10.6298  -15.6143   20.4030 H   0  0  0  0  0  0  0  0  0  0  0  0
   11.9229  -12.7857   22.7879 H   0  0  0  0  0  0  0  0  0  0  0  0
    6.0556  -14.1448   21.5286 H   0  0  0  0  0  0  0  0  0  0  0  0
    5.4302  -15.7945   21.7890 H   0  0  0  0  0  0  0  0  0  0  0  0
    3.5834  -13.9760   18.9599 H   0  0  0  0  0  0  0  0  0  0  0  0
  2  1  1  0
  6  3  1  0
  7  6  1  0
  8  4  1  0
  9  7  1  0
  9  8  1  0
 10  5  1  0
 10  4  1  0
 11  2  1  0
 12 11  2  0
 13  5  2  0
 14  5  1  0
  6 15  1  0
  7 16  1  0
 17  8  1  0
 17  3  1  0
 18 10  1  0
  9 18  1  0
 10 19  1  6
 19  2  1  0
 20 11  1  0
  1 21  1  0
  1 22  1  0
  2 23  1  6
  3 24  1  0
  3 25  1  0
  4 26  1  0
  4 27  1  0
  6 28  1  1
  7 29  1  6
  8 30  1  1
  9 31  1  1
 14 32  1  0
 15 33  1  0
 16 34  1  0
 19 35  1  0
 19 36  1  0
 20 37  1  0
M  END
