
     RDKit          3D

 42 44  0  0  0  0  0  0  0  0999 V2000
   39.3845   35.5630   26.5736 P   0  0  0  0  0  0  0  0  0  0  0  0
   32.9234   36.3702   29.4826 P   0  0  0  0  0  0  0  0  0  0  0  0
   38.8337   34.1601   26.4734 O   0  0  0  0  0  0  0  0  0  0  0  0
   40.8905   35.6531   25.8403 O   0  0  0  0  0  0  0  0  0  0  0  0
   39.5384   36.0209   28.1827 O   0  0  0  0  0  0  0  0  0  0  0  0
   34.0037   35.8796   30.4188 O   0  0  0  0  0  0  0  0  0  0  0  0
   32.1699   37.7416   30.0897 O   0  0  0  0  0  0  0  0  0  0  0  0
   31.7774   35.1677   29.2425 O   0  0  0  0  0  0  0  0  0  0  0  0
   34.4539   37.7871   28.0067 C   0  0  0  0  0  0  0  0  0  0  0  0
   33.5698   36.6974   27.9615 O   0  0  0  0  0  0  0  0  0  0  0  0
   35.1532   37.8325   26.6433 C   0  0  1  0  0  0  0  0  0  0  0  0
   35.9061   39.0240   26.5165 O   0  0  0  0  0  0  0  0  0  0  0  0
   36.0871   36.6241   26.4575 C   0  0  1  0  0  0  0  0  0  0  0  0
   35.8773   36.0621   25.1833 O   0  0  0  0  0  0  0  0  0  0  0  0
   37.4533   37.2592   26.5512 C   0  0  1  0  0  0  0  0  0  0  0  0
   38.3903   36.6261   25.7132 O   0  0  0  0  0  0  0  0  0  0  0  0
   37.1656   38.6472   26.0167 C   0  0  2  0  0  0  0  0  0  0  0  0
   40.8343   41.8908   24.3805 N   0  0  0  0  0  0  0  0  0  0  0  0
   40.0190   41.0763   23.6422 C   0  0  0  0  0  0  0  0  0  0  0  0
   39.1004   40.2727   24.2588 N   0  0  0  0  0  0  0  0  0  0  0  0
   39.0232   40.3061   25.6135 C   0  0  0  0  0  0  0  0  0  0  0  0
   39.8162   41.1014   26.3637 C   0  0  0  0  0  0  0  0  0  0  0  0
   40.7546   41.9240   25.7430 C   0  0  0  0  0  0  0  0  0  0  0  0
   41.6112   42.7796   26.4881 N   0  0  0  0  0  0  0  0  0  0  0  0
   39.5293   40.9468   27.6727 N   0  0  0  0  0  0  0  0  0  0  0  0
   38.5276   40.0236   27.6640 C   0  0  0  0  0  0  0  0  0  0  0  0
   38.1965   39.6122   26.4124 N   0  0  0  0  0  0  0  0  0  0  0  0
   40.7268   35.4118   24.8936 H   0  0  0  0  0  0  0  0  0  0  0  0
   38.8333   35.5130   28.6585 H   0  0  0  0  0  0  0  0  0  0  0  0
   32.9079   38.3539   30.3378 H   0  0  0  0  0  0  0  0  0  0  0  0
   31.4406   34.9533   30.1490 H   0  0  0  0  0  0  0  0  0  0  0  0
   33.8848   38.7316   28.1533 H   0  0  0  0  0  0  0  0  0  0  0  0
   35.2155   37.6764   28.8133 H   0  0  0  0  0  0  0  0  0  0  0  0
   34.3681   37.8371   25.8529 H   0  0  0  0  0  0  0  0  0  0  0  0
   35.9605   35.8496   27.2519 H   0  0  0  0  0  0  0  0  0  0  0  0
   34.9183   35.8102   25.1348 H   0  0  0  0  0  0  0  0  0  0  0  0
   37.7474   37.3449   27.6205 H   0  0  0  0  0  0  0  0  0  0  0  0
   37.1004   38.6155   24.9030 H   0  0  0  0  0  0  0  0  0  0  0  0
   40.1014   41.0684   22.5641 H   0  0  0  0  0  0  0  0  0  0  0  0
   42.4444   43.2255   26.0437 H   0  0  0  0  0  0  0  0  0  0  0  0
   41.4142   42.9727   27.4951 H   0  0  0  0  0  0  0  0  0  0  0  0
   38.0441   39.6636   28.5630 H   0  0  0  0  0  0  0  0  0  0  0  0
  3  1  2  0
  4  1  1  0
  5  1  1  0
  6  2  2  0
  7  2  1  0
  8  2  1  0
 10  9  1  0
 10  2  1  0
 11  9  1  0
 12 11  1  0
 13 11  1  0
 13 14  1  0
 15 13  1  0
 15 16  1  0
 16  1  1  0
 17 15  1  0
 17 12  1  0
 19 18  2  0
 20 19  1  0
 21 20  2  0
 22 21  1  0
 23 22  2  0
 23 18  1  0
 24 23  1  0
 25 22  1  0
 26 25  2  0
 17 27  1  0
 27 21  1  0
 27 26  1  0
  4 28  1  0
  5 29  1  0
  7 30  1  0
  8 31  1  0
  9 32  1  0
  9 33  1  0
 11 34  1  6
 13 35  1  1
 14 36  1  0
 15 37  1  1
 17 38  1  6
 19 39  1  0
 24 40  1  0
 24 41  1  0
 26 42  1  0
M  END
