
     RDKit          3D

 42 44  0  0  0  0  0  0  0  0999 V2000
   39.4571   35.1944   27.2373 P   0  0  0  0  0  0  0  0  0  0  0  0
   34.9224   36.2578   30.3902 P   0  0  0  0  0  0  0  0  0  0  0  0
   38.9167   33.7880   27.1302 O   0  0  0  0  0  0  0  0  0  0  0  0
   40.9563   35.3026   26.4926 O   0  0  0  0  0  0  0  0  0  0  0  0
   39.6204   35.6406   28.8488 O   0  0  0  0  0  0  0  0  0  0  0  0
   35.8544   35.4144   29.5511 O   0  0  0  0  0  0  0  0  0  0  0  0
   35.7011   36.8511   31.7535 O   0  0  0  0  0  0  0  0  0  0  0  0
   33.5908   35.3516   30.8620 O   0  0  0  0  0  0  0  0  0  0  0  0
   35.3177   38.4471   29.1337 C   0  0  0  0  0  0  0  0  0  0  0  0
   34.3077   37.5353   29.4798 O   0  0  0  0  0  0  0  0  0  0  0  0
   35.6932   38.1437   27.6788 C   0  0  1  0  0  0  0  0  0  0  0  0
   36.5516   39.1486   27.1729 O   0  0  0  0  0  0  0  0  0  0  0  0
   36.3907   36.7777   27.5585 C   0  0  1  0  0  0  0  0  0  0  0  0
   35.8272   36.0572   26.4876 O   0  0  0  0  0  0  0  0  0  0  0  0
   37.8158   37.1726   27.2553 C   0  0  1  0  0  0  0  0  0  0  0  0
   38.4474   36.2563   26.3936 O   0  0  0  0  0  0  0  0  0  0  0  0
   37.6048   38.4813   26.5219 C   0  0  2  0  0  0  0  0  0  0  0  0
   41.2151   40.7216   23.5888 N   0  0  0  0  0  0  0  0  0  0  0  0
   40.1532   39.9501   23.2010 C   0  0  0  0  0  0  0  0  0  0  0  0
   39.2968   39.4318   24.1325 N   0  0  0  0  0  0  0  0  0  0  0  0
   39.5304   39.7023   25.4419 C   0  0  0  0  0  0  0  0  0  0  0  0
   40.5707   40.4610   25.8492 C   0  0  0  0  0  0  0  0  0  0  0  0
   41.4480   40.9937   24.9062 C   0  0  0  0  0  0  0  0  0  0  0  0
   42.5567   41.7992   25.2843 N   0  0  0  0  0  0  0  0  0  0  0  0
   40.5664   40.5779   27.1932 N   0  0  0  0  0  0  0  0  0  0  0  0
   39.4735   39.8541   27.5641 C   0  0  0  0  0  0  0  0  0  0  0  0
   38.8182   39.3047   26.5087 N   0  0  0  0  0  0  0  0  0  0  0  0
   40.7869   35.0676   25.5454 H   0  0  0  0  0  0  0  0  0  0  0  0
   39.0579   36.4505   28.9449 H   0  0  0  0  0  0  0  0  0  0  0  0
   36.5426   37.2510   31.4172 H   0  0  0  0  0  0  0  0  0  0  0  0
   33.9701   34.5806   31.3550 H   0  0  0  0  0  0  0  0  0  0  0  0
   34.9281   39.4872   29.1976 H   0  0  0  0  0  0  0  0  0  0  0  0
   36.2187   38.3413   29.7816 H   0  0  0  0  0  0  0  0  0  0  0  0
   34.7589   38.1534   27.0721 H   0  0  0  0  0  0  0  0  0  0  0  0
   36.3425   36.1796   28.5003 H   0  0  0  0  0  0  0  0  0  0  0  0
   36.3925   36.2370   25.6915 H   0  0  0  0  0  0  0  0  0  0  0  0
   38.3508   37.3821   28.2077 H   0  0  0  0  0  0  0  0  0  0  0  0
   37.2880   38.2771   25.4715 H   0  0  0  0  0  0  0  0  0  0  0  0
   39.9902   39.7493   22.1512 H   0  0  0  0  0  0  0  0  0  0  0  0
   43.2169   41.4884   26.0313 H   0  0  0  0  0  0  0  0  0  0  0  0
   42.7237   42.7168   24.8150 H   0  0  0  0  0  0  0  0  0  0  0  0
   39.1599   39.7378   28.5934 H   0  0  0  0  0  0  0  0  0  0  0  0
  3  1  2  0
  4  1  1  0
  5  1  1  0
  6  2  2  0
  7  2  1  0
  8  2  1  0
 10  9  1  0
 10  2  1  0
 11  9  1  0
 12 11  1  0
 13 11  1  0
 13 14  1  0
 15 13  1  0
 15 16  1  0
 16  1  1  0
 17 15  1  0
 17 12  1  0
 19 18  2  0
 20 19  1  0
 21 20  2  0
 22 21  1  0
 23 22  2  0
 23 18  1  0
 24 23  1  0
 25 22  1  0
 26 25  2  0
 17 27  1  0
 27 21  1  0
 27 26  1  0
  4 28  1  0
  5 29  1  0
  7 30  1  0
  8 31  1  0
  9 32  1  0
  9 33  1  0
 11 34  1  6
 13 35  1  1
 14 36  1  0
 15 37  1  1
 17 38  1  6
 19 39  1  0
 24 40  1  0
 24 41  1  0
 26 42  1  0
M  END
