
     RDKit          3D

 49 51  0  0  0  0  0  0  0  0999 V2000
  -15.6125   50.6982   26.6439 P   0  0  2  0  0  0  0  0  0  0  0  0
  -13.0968   50.2220   25.5576 P   0  0  1  0  0  0  0  0  0  0  0  0
  -13.7069   49.5646   22.7929 P   0  0  0  0  0  0  0  0  0  0  0  0
  -16.9997   48.5734   26.6961 C   0  0  0  0  0  0  0  0  0  0  0  0
  -16.7810   49.7713   27.3986 O   0  0  0  0  0  0  0  0  0  0  0  0
  -18.2596   47.9423   27.2887 C   0  0  1  0  0  0  0  0  0  0  0  0
  -18.0058   47.5943   28.6403 O   0  0  0  0  0  0  0  0  0  0  0  0
  -19.4358   48.9310   27.2448 C   0  0  1  0  0  0  0  0  0  0  0  0
  -20.6363   48.2275   27.0461 O   0  0  0  0  0  0  0  0  0  0  0  0
  -19.3815   49.5396   28.6336 C   0  0  1  0  0  0  0  0  0  0  0  0
  -20.6156   50.0441   29.0774 O   0  0  0  0  0  0  0  0  0  0  0  0
  -18.8602   48.3638   29.4576 C   0  0  2  0  0  0  0  0  0  0  0  0
  -18.4359   47.6802   34.5210 N   0  0  0  0  0  0  0  0  0  0  0  0
  -15.3003   51.8542   27.5607 O   0  0  0  0  0  0  0  0  0  0  0  0
  -11.8712   50.1771   26.4328 O   0  0  0  0  0  0  0  0  0  0  0  0
  -13.4260   48.4739   21.7911 O   0  0  0  0  0  0  0  0  0  0  0  0
  -19.3060   47.0988   33.6309 C   0  0  0  0  0  0  0  0  0  0  0  0
  -20.2607   46.1547   34.0918 N   0  0  0  0  0  0  0  0  0  0  0  0
  -16.2018   51.2284   25.1646 O   0  0  0  0  0  0  0  0  0  0  0  0
  -13.3716   51.7781   24.9904 O   0  0  0  0  0  0  0  0  0  0  0  0
  -15.3631   49.7509   22.9989 O   0  0  0  0  0  0  0  0  0  0  0  0
  -19.2671   47.4228   32.3081 N   0  0  0  0  0  0  0  0  0  0  0  0
  -12.9823   49.0492   24.2798 N   0  0  0  0  0  0  0  0  0  0  0  0
  -14.3172   49.6437   26.5365 O   0  0  0  0  0  0  0  0  0  0  0  0
  -13.0064   50.9860   22.2486 O   0  0  0  0  0  0  0  0  0  0  0  0
  -18.3463   48.3308   31.9105 C   0  0  0  0  0  0  0  0  0  0  0  0
  -17.4661   48.9177   32.7606 C   0  0  0  0  0  0  0  0  0  0  0  0
  -17.5015   48.5918   34.1191 C   0  0  0  0  0  0  0  0  0  0  0  0
  -16.7149   49.1053   34.9614 O   0  0  0  0  0  0  0  0  0  0  0  0
  -16.6581   49.7623   32.0836 N   0  0  0  0  0  0  0  0  0  0  0  0
  -17.1033   49.6473   30.8009 C   0  0  0  0  0  0  0  0  0  0  0  0
  -18.1502   48.7875   30.6694 N   0  0  0  0  0  0  0  0  0  0  0  0
  -17.1680   48.7527   25.6088 H   0  0  0  0  0  0  0  0  0  0  0  0
  -16.1449   47.8749   26.8337 H   0  0  0  0  0  0  0  0  0  0  0  0
  -18.4966   47.0202   26.7134 H   0  0  0  0  0  0  0  0  0  0  0  0
  -19.3217   49.7227   26.4663 H   0  0  0  0  0  0  0  0  0  0  0  0
  -21.3717   48.8795   27.1869 H   0  0  0  0  0  0  0  0  0  0  0  0
  -18.6662   50.3851   28.6522 H   0  0  0  0  0  0  0  0  0  0  0  0
  -20.4550   50.6444   29.8509 H   0  0  0  0  0  0  0  0  0  0  0  0
  -19.7159   47.7107   29.7425 H   0  0  0  0  0  0  0  0  0  0  0  0
  -18.4862   47.4181   35.5318 H   0  0  0  0  0  0  0  0  0  0  0  0
  -20.3101   45.8928   35.1014 H   0  0  0  0  0  0  0  0  0  0  0  0
  -20.9272   45.7097   33.4225 H   0  0  0  0  0  0  0  0  0  0  0  0
  -17.0530   51.6860   25.3814 H   0  0  0  0  0  0  0  0  0  0  0  0
  -14.1528   52.1104   25.4981 H   0  0  0  0  0  0  0  0  0  0  0  0
  -15.6818   48.8642   23.3047 H   0  0  0  0  0  0  0  0  0  0  0  0
  -11.9657   48.8974   24.0931 H   0  0  0  0  0  0  0  0  0  0  0  0
  -13.4480   51.7027   22.7702 H   0  0  0  0  0  0  0  0  0  0  0  0
  -16.6577   50.1857   29.9766 H   0  0  0  0  0  0  0  0  0  0  0  0
  5  4  1  0
  1  5  1  1
  6  4  1  0
  7  6  1  0
  8  6  1  0
  8  9  1  0
 10  8  1  0
 10 11  1  0
 12 10  1  0
 12  7  1  0
 14  1  2  0
 15  2  2  0
 16  3  2  0
 17 13  1  0
 18 17  1  0
 19  1  1  0
  2 20  1  6
 21  3  1  0
 22 17  2  0
 23  3  1  0
 23  2  1  0
 24  2  1  0
 24  1  1  0
 25  3  1  0
 26 22  1  0
 27 26  2  0
 28 13  1  0
 28 27  1  0
 29 28  2  0
 30 27  1  0
 31 30  2  0
 32 26  1  0
 12 32  1  0
 32 31  1  0
  4 33  1  0
  4 34  1  0
  6 35  1  6
  8 36  1  6
  9 37  1  0
 10 38  1  6
 11 39  1  0
 12 40  1  1
 13 41  1  0
 18 42  1  0
 18 43  1  0
 19 44  1  0
 20 45  1  0
 21 46  1  0
 23 47  1  0
 25 48  1  0
 31 49  1  0
M  END
