
     RDKit          3D

 49 51  0  0  0  0  0  0  0  0999 V2000
  -11.9013    2.3070    3.0946 P   0  0  2  0  0  0  0  0  0  0  0  0
   -9.3588    3.5227    4.0456 P   0  0  2  0  0  0  0  0  0  0  0  0
   -7.0205    2.7584    2.7211 P   0  0  0  0  0  0  0  0  0  0  0  0
  -12.2803    0.7165    1.1434 C   0  0  0  0  0  0  0  0  0  0  0  0
  -12.2807    0.7678    2.5426 O   0  0  0  0  0  0  0  0  0  0  0  0
  -12.1841   -0.7557    0.7639 C   0  0  1  0  0  0  0  0  0  0  0  0
  -10.9669   -1.2942    1.2290 O   0  0  0  0  0  0  0  0  0  0  0  0
  -13.2784   -1.6282    1.4034 C   0  0  1  0  0  0  0  0  0  0  0  0
  -14.5060   -1.6130    0.7149 O   0  0  0  0  0  0  0  0  0  0  0  0
  -12.6164   -3.0018    1.4570 C   0  0  1  0  0  0  0  0  0  0  0  0
  -13.1715   -3.9072    0.5305 O   0  0  0  0  0  0  0  0  0  0  0  0
  -11.1482   -2.6858    1.1243 C   0  0  2  0  0  0  0  0  0  0  0  0
   -9.3782   -3.9331    5.8803 N   0  0  0  0  0  0  0  0  0  0  0  0
  -12.1446    2.2830    4.5838 O   0  0  0  0  0  0  0  0  0  0  0  0
   -9.2640    2.6716    5.2932 O   0  0  0  0  0  0  0  0  0  0  0  0
   -7.8273    2.0380    1.6645 O   0  0  0  0  0  0  0  0  0  0  0  0
  -10.4966   -3.2022    5.5687 C   0  0  0  0  0  0  0  0  0  0  0  0
  -12.8733    3.4617    2.3589 O   0  0  0  0  0  0  0  0  0  0  0  0
  -10.1924    4.9493    4.3542 O   0  0  0  0  0  0  0  0  0  0  0  0
   -5.7060    3.5287    2.0221 O   0  0  0  0  0  0  0  0  0  0  0  0
  -10.1683    2.6305    2.7081 C   0  0  0  0  0  0  0  0  0  0  0  0
  -10.8455   -2.9653    4.2661 N   0  0  0  0  0  0  0  0  0  0  0  0
   -7.8646    4.0189    3.4554 O   0  0  0  0  0  0  0  0  0  0  0  0
   -6.4591    1.6792    3.8758 O   0  0  0  0  0  0  0  0  0  0  0  0
  -10.0469   -3.4829    3.2993 C   0  0  0  0  0  0  0  0  0  0  0  0
   -8.9369   -4.2091    3.5838 C   0  0  0  0  0  0  0  0  0  0  0  0
   -8.5781   -4.4471    4.9038 C   0  0  0  0  0  0  0  0  0  0  0  0
   -7.4164   -5.1975    5.2399 N   0  0  0  0  0  0  0  0  0  0  0  0
   -8.3201   -4.6060    2.4542 N   0  0  0  0  0  0  0  0  0  0  0  0
   -9.1121   -4.0882    1.4827 C   0  0  0  0  0  0  0  0  0  0  0  0
  -10.1831   -3.4021    1.9620 N   0  0  0  0  0  0  0  0  0  0  0  0
  -11.4104    1.2505    0.6983 H   0  0  0  0  0  0  0  0  0  0  0  0
  -13.2275    1.1411    0.7434 H   0  0  0  0  0  0  0  0  0  0  0  0
  -12.2126   -0.8255   -0.3495 H   0  0  0  0  0  0  0  0  0  0  0  0
  -13.4740   -1.3116    2.4509 H   0  0  0  0  0  0  0  0  0  0  0  0
  -15.1278   -1.0008    1.1862 H   0  0  0  0  0  0  0  0  0  0  0  0
  -12.7242   -3.4320    2.4751 H   0  0  0  0  0  0  0  0  0  0  0  0
  -13.0509   -3.5420   -0.3848 H   0  0  0  0  0  0  0  0  0  0  0  0
  -10.9461   -2.9618    0.0617 H   0  0  0  0  0  0  0  0  0  0  0  0
  -11.1117   -2.8055    6.3645 H   0  0  0  0  0  0  0  0  0  0  0  0
  -13.8003    3.1808    2.5655 H   0  0  0  0  0  0  0  0  0  0  0  0
  -10.6001    4.8249    5.2478 H   0  0  0  0  0  0  0  0  0  0  0  0
   -5.8737    4.4949    2.1615 H   0  0  0  0  0  0  0  0  0  0  0  0
  -10.1045    3.2234    1.7726 H   0  0  0  0  0  0  0  0  0  0  0  0
   -9.6446    1.6645    2.5576 H   0  0  0  0  0  0  0  0  0  0  0  0
   -5.9404    1.0075    3.3652 H   0  0  0  0  0  0  0  0  0  0  0  0
   -6.7974   -5.5938    4.4980 H   0  0  0  0  0  0  0  0  0  0  0  0
   -7.1691   -5.3607    6.2410 H   0  0  0  0  0  0  0  0  0  0  0  0
   -8.8983   -4.2065    0.4280 H   0  0  0  0  0  0  0  0  0  0  0  0
  5  4  1  0
  1  5  1  6
  6  4  1  0
  7  6  1  0
  8  6  1  0
  8  9  1  0
 10  8  1  0
 10 11  1  0
 12 10  1  0
 12  7  1  0
 14  1  2  0
 15  2  2  0
 16  3  2  0
 17 13  2  0
 18  1  1  0
  2 19  1  1
 20  3  1  0
 21  1  1  0
 21  2  1  0
 22 17  1  0
 23  3  1  0
 23  2  1  0
 24  3  1  0
 25 22  2  0
 26 25  1  0
 27 26  2  0
 27 13  1  0
 28 27  1  0
 29 26  1  0
 30 29  2  0
 12 31  1  0
 31 30  1  0
 31 25  1  0
  4 32  1  0
  4 33  1  0
  6 34  1  6
  8 35  1  1
  9 36  1  0
 10 37  1  1
 11 38  1  0
 12 39  1  6
 17 40  1  0
 18 41  1  0
 19 42  1  0
 20 43  1  0
 21 44  1  0
 21 45  1  0
 24 46  1  0
 28 47  1  0
 28 48  1  0
 30 49  1  0
M  END
