
     RDKit          3D

 16 16  0  0  0  0  0  0  0  0999 V2000
   22.4501  -13.4180  -38.9716 C   0  0  0  0  0  0  0  0  0  0  0  0
   20.8656  -11.7503  -38.2232 O   0  0  0  0  0  0  0  0  0  0  0  0
   22.1993  -14.2934  -37.8975 C   0  0  0  0  0  0  0  0  0  0  0  0
   22.5194  -15.6487  -37.9971 C   0  0  0  0  0  0  0  0  0  0  0  0
   23.0853  -16.1493  -39.1640 C   0  0  0  0  0  0  0  0  0  0  0  0
   23.3403  -15.2968  -40.2332 C   0  0  0  0  0  0  0  0  0  0  0  0
   23.0181  -13.9423  -40.1422 C   0  0  0  0  0  0  0  0  0  0  0  0
   22.0801  -11.9492  -38.9046 C   0  0  0  0  0  0  0  0  0  0  0  0
   21.6486  -13.8447  -36.7477 F   0  0  0  0  0  0  0  0  0  0  0  0
   22.2668  -16.4852  -36.9634 F   0  0  0  0  0  0  0  0  0  0  0  0
   23.3832  -17.4661  -39.2560 F   0  0  0  0  0  0  0  0  0  0  0  0
   23.8847  -15.7882  -41.3702 F   0  0  0  0  0  0  0  0  0  0  0  0
   23.2592  -13.1393  -41.2009 F   0  0  0  0  0  0  0  0  0  0  0  0
   21.0911  -11.3447  -37.3462 H   0  0  0  0  0  0  0  0  0  0  0  0
   22.8994  -11.3775  -38.4117 H   0  0  0  0  0  0  0  0  0  0  0  0
   21.9796  -11.5259  -39.9258 H   0  0  0  0  0  0  0  0  0  0  0  0
  3  1  2  0
  4  3  1  0
  5  4  2  0
  6  5  1  0
  7  6  2  0
  7  1  1  0
  8  1  1  0
  8  2  1  0
  9  3  1  0
 10  4  1  0
 11  5  1  0
 12  6  1  0
 13  7  1  0
  2 14  1  0
  8 15  1  0
  8 16  1  0
M  END
