
     RDKit          3D

 35 37  0  0  0  0  0  0  0  0999 V2000
   31.0950   26.0540   27.1750 C   0  0  0  0  0  0  0  0  0  0  0  0
   26.6860   25.0772   28.1261 N   0  0  0  0  0  0  0  0  0  0  0  0
   31.8442   26.8990   26.3599 O   0  0  0  0  0  0  0  0  0  0  0  0
   31.6298   25.5758   28.3765 C   0  0  0  0  0  0  0  0  0  0  0  0
   25.8019   22.9383   28.9273 N   0  0  0  0  0  0  0  0  0  0  0  0
   28.4658   22.8644   24.9550 O   0  0  0  0  0  0  0  0  0  0  0  0
   30.8775   24.7246   29.1871 C   0  0  0  0  0  0  0  0  0  0  0  0
   29.5902   24.3424   28.8007 C   0  0  0  0  0  0  0  0  0  0  0  0
   29.0338   24.8210   27.6025 C   0  0  0  0  0  0  0  0  0  0  0  0
   29.7988   25.6806   26.7908 C   0  0  0  0  0  0  0  0  0  0  0  0
   27.6241   24.4305   27.2118 C   0  0  1  0  0  0  0  0  0  0  0  0
   25.8328   24.3477   28.9942 C   0  0  0  0  0  0  0  0  0  0  0  0
   26.6311   22.2369   28.0085 C   0  0  0  0  0  0  0  0  0  0  0  0
   27.4639   22.9111   27.1557 C   0  0  0  0  0  0  0  0  0  0  0  0
   28.3378   22.1572   26.1640 C   0  0  1  0  0  0  0  0  0  0  0  0
   27.8123   20.7434   25.8865 C   0  0  0  0  0  0  0  0  0  0  0  0
   27.5649   20.0245   27.2067 C   0  0  0  0  0  0  0  0  0  0  0  0
   26.4594   20.7349   27.9775 C   0  0  0  0  0  0  0  0  0  0  0  0
   24.8830   25.1299   30.0577 S   0  0  0  0  0  0  0  0  0  0  0  0
   26.6670   26.1223   28.1560 H   0  0  0  0  0  0  0  0  0  0  0  0
   32.2270   27.7702   26.7083 H   0  0  0  0  0  0  0  0  0  0  0  0
   32.6283   25.8614   28.6823 H   0  0  0  0  0  0  0  0  0  0  0  0
   25.1582   22.4067   29.5571 H   0  0  0  0  0  0  0  0  0  0  0  0
   27.5526   23.1223   24.6605 H   0  0  0  0  0  0  0  0  0  0  0  0
   31.2946   24.3545   30.1148 H   0  0  0  0  0  0  0  0  0  0  0  0
   29.0234   23.6767   29.4399 H   0  0  0  0  0  0  0  0  0  0  0  0
   29.3920   26.0604   25.8618 H   0  0  0  0  0  0  0  0  0  0  0  0
   27.4000   24.8264   26.1977 H   0  0  0  0  0  0  0  0  0  0  0  0
   29.3515   22.0683   26.6122 H   0  0  0  0  0  0  0  0  0  0  0  0
   28.5666   20.1792   25.2962 H   0  0  0  0  0  0  0  0  0  0  0  0
   26.8696   20.7831   25.2962 H   0  0  0  0  0  0  0  0  0  0  0  0
   27.2610   18.9739   27.0084 H   0  0  0  0  0  0  0  0  0  0  0  0
   28.4984   20.0055   27.8121 H   0  0  0  0  0  0  0  0  0  0  0  0
   26.4382   20.3406   29.0164 H   0  0  0  0  0  0  0  0  0  0  0  0
   25.4798   20.5050   27.5051 H   0  0  0  0  0  0  0  0  0  0  0  0
  3  1  1  0
  4  1  2  0
  7  4  1  0
  8  7  2  0
  9  8  1  0
 10  9  2  0
 10  1  1  0
 11  2  1  0
 11  9  1  0
 12  5  1  0
 12  2  1  0
 13  5  1  0
 14 13  2  0
 14 11  1  0
 15 14  1  0
 15  6  1  0
 16 15  1  0
 17 16  1  0
 18 17  1  0
 18 13  1  0
 19 12  2  0
  2 20  1  0
  3 21  1  0
  4 22  1  0
  5 23  1  0
  6 24  1  0
  7 25  1  0
  8 26  1  0
 10 27  1  0
 11 28  1  6
 15 29  1  1
 16 30  1  0
 16 31  1  0
 17 32  1  0
 17 33  1  0
 18 34  1  0
 18 35  1  0
M  END
