
     RDKit          3D

 35 37  0  0  0  0  0  0  0  0999 V2000
   31.4637   12.6018   15.9528 C   0  0  0  0  0  0  0  0  0  0  0  0
   27.8309   13.1033   12.9521 N   0  0  0  0  0  0  0  0  0  0  0  0
   31.9796   11.8970   17.0368 O   0  0  0  0  0  0  0  0  0  0  0  0
   32.3162   13.3029   15.0917 C   0  0  0  0  0  0  0  0  0  0  0  0
   26.5955   15.2042   12.7136 N   0  0  0  0  0  0  0  0  0  0  0  0
   27.6304   13.7535   17.1894 O   0  0  0  0  0  0  0  0  0  0  0  0
   31.7903   14.0134   14.0114 C   0  0  0  0  0  0  0  0  0  0  0  0
   30.4127   14.0239   13.7825 C   0  0  0  0  0  0  0  0  0  0  0  0
   29.5477   13.3168   14.6342 C   0  0  0  0  0  0  0  0  0  0  0  0
   30.0835   12.6072   15.7227 C   0  0  0  0  0  0  0  0  0  0  0  0
   28.0601   13.3190   14.3780 C   0  0  1  0  0  0  0  0  0  0  0  0
   27.1382   14.0357   12.1393 C   0  0  0  0  0  0  0  0  0  0  0  0
   26.7671   15.4790   14.0977 C   0  0  0  0  0  0  0  0  0  0  0  0
   27.4194   14.5952   14.9161 C   0  0  0  0  0  0  0  0  0  0  0  0
   27.6390   14.9138   16.3902 C   0  0  1  0  0  0  0  0  0  0  0  0
   26.6239   15.9374   16.9103 C   0  0  0  0  0  0  0  0  0  0  0  0
   26.6185   17.1515   15.9855 C   0  0  0  0  0  0  0  0  0  0  0  0
   26.1184   16.7461   14.6047 C   0  0  0  0  0  0  0  0  0  0  0  0
   26.9394   13.7495   10.5536 S   0  0  0  0  0  0  0  0  0  0  0  0
   28.1898   12.2207   12.5210 H   0  0  0  0  0  0  0  0  0  0  0  0
   31.3918   11.6104   17.8110 H   0  0  0  0  0  0  0  0  0  0  0  0
   33.3854   13.3019   15.2615 H   0  0  0  0  0  0  0  0  0  0  0  0
   26.0667   15.8764   12.1118 H   0  0  0  0  0  0  0  0  0  0  0  0
   26.7047   13.3939   17.1772 H   0  0  0  0  0  0  0  0  0  0  0  0
   32.4516   14.5583   13.3501 H   0  0  0  0  0  0  0  0  0  0  0  0
   30.0193   14.5819   12.9417 H   0  0  0  0  0  0  0  0  0  0  0  0
   29.4336   12.0586   16.3933 H   0  0  0  0  0  0  0  0  0  0  0  0
   27.5876   12.4653   14.9108 H   0  0  0  0  0  0  0  0  0  0  0  0
   28.6508   15.3667   16.4792 H   0  0  0  0  0  0  0  0  0  0  0  0
   26.9131   16.2563   17.9351 H   0  0  0  0  0  0  0  0  0  0  0  0
   25.6059   15.4904   16.9588 H   0  0  0  0  0  0  0  0  0  0  0  0
   25.9496   17.9341   16.4040 H   0  0  0  0  0  0  0  0  0  0  0  0
   27.6426   17.5799   15.9086 H   0  0  0  0  0  0  0  0  0  0  0  0
   25.0194   16.5846   14.6462 H   0  0  0  0  0  0  0  0  0  0  0  0
   26.3160   17.5781   13.8948 H   0  0  0  0  0  0  0  0  0  0  0  0
  3  1  1  0
  4  1  2  0
  7  4  1  0
  8  7  2  0
  9  8  1  0
 10  9  2  0
 10  1  1  0
 11  9  1  0
 11  2  1  0
 12  5  1  0
 12  2  1  0
 13  5  1  0
 14 13  2  0
 14 11  1  0
 15 14  1  0
 15  6  1  0
 16 15  1  0
 17 16  1  0
 18 13  1  0
 18 17  1  0
 19 12  2  0
  2 20  1  0
  3 21  1  0
  4 22  1  0
  5 23  1  0
  6 24  1  0
  7 25  1  0
  8 26  1  0
 10 27  1  0
 11 28  1  1
 15 29  1  6
 16 30  1  0
 16 31  1  0
 17 32  1  0
 17 33  1  0
 18 34  1  0
 18 35  1  0
M  END
