
     RDKit          3D

 23 22  0  0  0  0  0  0  0  0999 V2000
   42.6073   31.5274   72.4529 P   0  0  0  0  0  0  0  0  0  0  0  0
   42.7239   31.7166   66.7233 P   0  0  0  0  0  0  0  0  0  0  0  0
   42.0464   31.3418   70.8566 O   0  0  0  0  0  0  0  0  0  0  0  0
   42.5602   30.1774   70.2379 C   0  0  2  0  0  0  0  0  0  0  0  0
   43.2840   30.6187   68.9530 C   0  0  0  0  0  0  0  0  0  0  0  0
   42.4077   30.4944   67.8578 O   0  0  0  0  0  0  0  0  0  0  0  0
   41.4267   29.2446   69.9107 C   0  0  0  0  0  0  0  0  0  0  0  0
   41.0090   29.1059   68.5977 O   0  0  0  0  0  0  0  0  0  0  0  0
   40.8373   28.6122   70.8268 O   0  0  0  0  0  0  0  0  0  0  0  0
   42.3271   30.1022   73.3033 O   0  0  0  0  0  0  0  0  0  0  0  0
   44.2566   31.8691   72.4883 O   0  0  0  0  0  0  0  0  0  0  0  0
   41.8514   32.6592   73.1125 O   0  0  0  0  0  0  0  0  0  0  0  0
   41.3061   32.0142   65.8730 O   0  0  0  0  0  0  0  0  0  0  0  0
   43.9010   31.1913   65.6409 O   0  0  0  0  0  0  0  0  0  0  0  0
   43.1849   32.9878   67.4069 O   0  0  0  0  0  0  0  0  0  0  0  0
   43.3081   29.6281   70.8515 H   0  0  0  0  0  0  0  0  0  0  0  0
   43.6265   31.6733   69.0617 H   0  0  0  0  0  0  0  0  0  0  0  0
   44.1741   29.9617   68.8231 H   0  0  0  0  0  0  0  0  0  0  0  0
   41.6661   28.8634   67.8658 H   0  0  0  0  0  0  0  0  0  0  0  0
   41.3556   30.1057   73.4940 H   0  0  0  0  0  0  0  0  0  0  0  0
   44.6227   31.2786   73.1944 H   0  0  0  0  0  0  0  0  0  0  0  0
   41.5293   32.7620   65.2631 H   0  0  0  0  0  0  0  0  0  0  0  0
   43.3929   30.8581   64.8588 H   0  0  0  0  0  0  0  0  0  0  0  0
  3  1  1  0
  4  3  1  0
  4  5  1  0
  6  5  1  0
  6  2  1  0
  7  4  1  0
  8  7  1  0
  9  7  2  0
 10  1  1  0
 11  1  1  0
 12  1  2  0
 13  2  1  0
 14  2  1  0
 15  2  2  0
  4 16  1  1
  5 17  1  0
  5 18  1  0
  8 19  1  0
 10 20  1  0
 11 21  1  0
 13 22  1  0
 14 23  1  0
M  END
