
     RDKit          3D

 38 40  0  0  0  0  0  0  0  0999 V2000
   29.5047   -7.2144  -13.2451 P   0  0  0  0  0  0  0  0  0  0  0  0
   30.4960   -7.0026  -14.3634 O   0  0  0  0  0  0  0  0  0  0  0  0
   30.3059   -7.3543  -11.7793 O   0  0  0  0  0  0  0  0  0  0  0  0
   28.3928   -5.9576  -13.1693 O   0  0  0  0  0  0  0  0  0  0  0  0
   27.4684   -8.7762  -13.1502 C   0  0  0  0  0  0  0  0  0  0  0  0
   28.7854   -8.6873  -13.5851 O   0  0  0  0  0  0  0  0  0  0  0  0
   27.1226  -10.2510  -13.3801 C   0  0  1  0  0  0  0  0  0  0  0  0
   26.0136  -10.5855  -12.6072 O   0  0  0  0  0  0  0  0  0  0  0  0
   26.8079  -10.5710  -14.8444 C   0  0  1  0  0  0  0  0  0  0  0  0
   27.0607  -11.9412  -15.0676 O   0  0  0  0  0  0  0  0  0  0  0  0
   25.3267  -10.2678  -14.8908 C   0  0  1  0  0  0  0  0  0  0  0  0
   24.6250  -10.9726  -15.8942 O   0  0  0  0  0  0  0  0  0  0  0  0
   24.9211  -10.6798  -13.4796 C   0  0  2  0  0  0  0  0  0  0  0  0
   20.6882  -10.9741  -10.6495 N   0  0  0  0  0  0  0  0  0  0  0  0
   21.4287  -11.9837  -11.2095 C   0  0  0  0  0  0  0  0  0  0  0  0
   21.1144  -13.1861  -11.0031 O   0  0  0  0  0  0  0  0  0  0  0  0
   22.5079  -11.6939  -11.9894 N   0  0  0  0  0  0  0  0  0  0  0  0
   22.8262  -10.3870  -12.1982 C   0  0  0  0  0  0  0  0  0  0  0  0
   22.1324   -9.3738  -11.6401 C   0  0  0  0  0  0  0  0  0  0  0  0
   21.0242   -9.6606  -10.8461 C   0  0  0  0  0  0  0  0  0  0  0  0
   20.3443   -8.7391  -10.3265 O   0  0  0  0  0  0  0  0  0  0  0  0
   22.7011   -8.1941  -11.9675 N   0  0  0  0  0  0  0  0  0  0  0  0
   23.7610   -8.5421  -12.7421 C   0  0  0  0  0  0  0  0  0  0  0  0
   23.8341   -9.8903  -12.9264 N   0  0  0  0  0  0  0  0  0  0  0  0
   31.2473   -7.1232  -11.9829 H   0  0  0  0  0  0  0  0  0  0  0  0
   28.0043   -6.0143  -12.2599 H   0  0  0  0  0  0  0  0  0  0  0  0
   26.8011   -8.1085  -13.7360 H   0  0  0  0  0  0  0  0  0  0  0  0
   27.4059   -8.5358  -12.0650 H   0  0  0  0  0  0  0  0  0  0  0  0
   27.9750  -10.8805  -13.0344 H   0  0  0  0  0  0  0  0  0  0  0  0
   27.3884   -9.9330  -15.5520 H   0  0  0  0  0  0  0  0  0  0  0  0
   27.1719  -12.0527  -16.0476 H   0  0  0  0  0  0  0  0  0  0  0  0
   25.1740   -9.1791  -15.0514 H   0  0  0  0  0  0  0  0  0  0  0  0
   24.3157  -11.8417  -15.5296 H   0  0  0  0  0  0  0  0  0  0  0  0
   24.6496  -11.7504  -13.5204 H   0  0  0  0  0  0  0  0  0  0  0  0
   19.8600  -11.2101  -10.0567 H   0  0  0  0  0  0  0  0  0  0  0  0
   23.0458  -12.4814  -12.4085 H   0  0  0  0  0  0  0  0  0  0  0  0
   22.4164   -7.2359  -11.6665 H   0  0  0  0  0  0  0  0  0  0  0  0
   24.4773   -7.8312  -13.1303 H   0  0  0  0  0  0  0  0  0  0  0  0
  2  1  2  0
  3  1  1  0
  4  1  1  0
  6  5  1  0
  6  1  1  0
  7  5  1  0
  8  7  1  0
  9  7  1  0
  9 10  1  0
 11  9  1  0
 11 12  1  0
 13 11  1  0
 13  8  1  0
 15 14  1  0
 16 15  2  0
 17 15  1  0
 18 17  1  0
 19 18  2  0
 20 14  1  0
 20 19  1  0
 21 20  2  0
 22 19  1  0
 23 22  2  0
 24 23  1  0
 24 18  1  0
 13 24  1  0
  3 25  1  0
  4 26  1  0
  5 27  1  0
  5 28  1  0
  7 29  1  1
  9 30  1  6
 10 31  1  0
 11 32  1  1
 12 33  1  0
 13 34  1  6
 14 35  1  0
 17 36  1  0
 22 37  1  0
 23 38  1  0
M  CHG  1  22   1
M  END
