
     RDKit          3D

 21 21  0  0  0  0  0  0  0  0999 V2000
   11.6723   45.1171   15.4137 C   0  0  0  0  0  0  0  0  0  0  0  0
   11.4682   44.0789   14.7274 O   0  0  0  0  0  0  0  0  0  0  0  0
   12.0251   45.0148   16.8315 C   0  0  0  0  0  0  0  0  0  0  0  0
   11.5525   46.3615   14.8276 O   0  0  0  0  0  0  0  0  0  0  0  0
   12.1727   43.6452   17.4261 C   0  0  0  0  0  0  0  0  0  0  0  0
   13.9856   43.7256   22.8271 O   0  0  0  0  0  0  0  0  0  0  0  0
   12.7506   43.6048   18.8132 C   0  0  0  0  0  0  0  0  0  0  0  0
   12.1486   46.0588   17.5293 O   0  0  0  0  0  0  0  0  0  0  0  0
   12.4615   42.5305   19.6703 C   0  0  0  0  0  0  0  0  0  0  0  0
   12.8749   42.5634   21.0054 C   0  0  0  0  0  0  0  0  0  0  0  0
   13.5766   43.6713   21.4970 C   0  0  0  0  0  0  0  0  0  0  0  0
   13.8849   44.7312   20.6398 C   0  0  0  0  0  0  0  0  0  0  0  0
   13.4775   44.6995   19.3042 C   0  0  0  0  0  0  0  0  0  0  0  0
   12.1460   47.1310   15.1140 H   0  0  0  0  0  0  0  0  0  0  0  0
   12.8053   43.0309   16.7479 H   0  0  0  0  0  0  0  0  0  0  0  0
   11.1724   43.1595   17.4396 H   0  0  0  0  0  0  0  0  0  0  0  0
   13.9869   42.8996   23.4142 H   0  0  0  0  0  0  0  0  0  0  0  0
   11.8950   41.6796   19.3125 H   0  0  0  0  0  0  0  0  0  0  0  0
   12.6375   41.7343   21.6598 H   0  0  0  0  0  0  0  0  0  0  0  0
   14.4333   45.5870   21.0127 H   0  0  0  0  0  0  0  0  0  0  0  0
   13.7017   45.5412   18.6604 H   0  0  0  0  0  0  0  0  0  0  0  0
  2  1  2  0
  3  1  1  0
  4  1  1  0
  5  3  1  0
  7  5  1  0
  8  3  2  0
  9  7  2  0
 10  9  1  0
 11 10  2  0
 11  6  1  0
 12 11  1  0
 13 12  2  0
 13  7  1  0
  4 14  1  0
  5 15  1  0
  5 16  1  0
  6 17  1  0
  9 18  1  0
 10 19  1  0
 12 20  1  0
 13 21  1  0
M  END
