
     RDKit          3D

 33 35  0  0  0  0  0  0  0  0999 V2000
    8.8238  -13.9289  -10.3802 C   0  0  0  0  0  0  0  0  0  0  0  0
    8.2955  -12.7080  -10.8203 O   0  0  0  0  0  0  0  0  0  0  0  0
   10.3211  -14.0294  -10.6841 C   0  0  1  0  0  0  0  0  0  0  0  0
   10.5803  -13.8769  -12.0656 O   0  0  0  0  0  0  0  0  0  0  0  0
   11.1419  -12.9712   -9.9539 C   0  0  1  0  0  0  0  0  0  0  0  0
   11.3782  -13.2676   -8.5967 O   0  0  0  0  0  0  0  0  0  0  0  0
   12.3884  -12.9724  -10.7911 C   0  0  1  0  0  0  0  0  0  0  0  0
   13.1735  -14.0960  -10.4721 O   0  0  0  0  0  0  0  0  0  0  0  0
   11.8014  -13.1694  -12.1893 C   0  0  2  0  0  0  0  0  0  0  0  0
   13.9819   -9.6642  -15.2034 N   0  0  0  0  0  0  0  0  0  0  0  0
   14.4990  -10.8019  -14.6537 C   0  0  0  0  0  0  0  0  0  0  0  0
   13.7339  -11.5871  -13.8476 N   0  0  0  0  0  0  0  0  0  0  0  0
   12.4544  -11.2117  -13.6086 C   0  0  0  0  0  0  0  0  0  0  0  0
   11.9057  -10.0783  -14.1441 C   0  0  0  0  0  0  0  0  0  0  0  0
   12.6950   -9.2752  -14.9716 C   0  0  0  0  0  0  0  0  0  0  0  0
   12.2156   -8.0697  -15.5546 N   0  0  0  0  0  0  0  0  0  0  0  0
   10.5893  -10.0186  -13.6851 C   0  0  0  0  0  0  0  0  0  0  0  0
   10.4235  -11.1528  -12.9028 C   0  0  0  0  0  0  0  0  0  0  0  0
   11.5662  -11.8834  -12.8637 N   0  0  0  0  0  0  0  0  0  0  0  0
    9.0101   -8.6615  -14.0568 I   0  0  0  0  0  0  0  0  0  0  0  0
    8.6700  -14.0259   -9.2820 H   0  0  0  0  0  0  0  0  0  0  0  0
    8.2955  -14.7694  -10.8831 H   0  0  0  0  0  0  0  0  0  0  0  0
    8.1647  -12.1550  -10.0068 H   0  0  0  0  0  0  0  0  0  0  0  0
   10.6535  -15.0513  -10.3893 H   0  0  0  0  0  0  0  0  0  0  0  0
   10.6638  -11.9687  -10.0223 H   0  0  0  0  0  0  0  0  0  0  0  0
   10.6247  -12.9177   -8.0541 H   0  0  0  0  0  0  0  0  0  0  0  0
   12.9666  -12.0224  -10.7009 H   0  0  0  0  0  0  0  0  0  0  0  0
   13.8130  -13.8062   -9.7704 H   0  0  0  0  0  0  0  0  0  0  0  0
   12.4963  -13.7777  -12.8104 H   0  0  0  0  0  0  0  0  0  0  0  0
   15.5234  -11.0803  -14.8592 H   0  0  0  0  0  0  0  0  0  0  0  0
   12.1070   -7.2180  -14.9604 H   0  0  0  0  0  0  0  0  0  0  0  0
   11.9216   -8.0011  -16.5481 H   0  0  0  0  0  0  0  0  0  0  0  0
    9.5009  -11.4359  -12.4230 H   0  0  0  0  0  0  0  0  0  0  0  0
  2  1  1  0
  3  1  1  0
  4  3  1  0
  5  3  1  0
  5  6  1  0
  7  5  1  0
  7  8  1  0
  9  4  1  0
  9  7  1  0
 11 10  2  0
 12 11  1  0
 13 12  2  0
 14 13  1  0
 15 14  2  0
 15 10  1  0
 16 15  1  0
 17 14  1  0
 18 17  2  0
 19 18  1  0
 19 13  1  0
  9 19  1  0
 20 17  1  0
  1 21  1  0
  1 22  1  0
  2 23  1  0
  3 24  1  1
  5 25  1  1
  6 26  1  0
  7 27  1  6
  8 28  1  0
  9 29  1  6
 11 30  1  0
 16 31  1  0
 16 32  1  0
 18 33  1  0
M  END
