
     RDKit          3D

 33 35  0  0  0  0  0  0  0  0999 V2000
    8.0777  -14.1615   -8.9155 C   0  0  0  0  0  0  0  0  0  0  0  0
    7.5494  -12.9407   -9.3555 O   0  0  0  0  0  0  0  0  0  0  0  0
    9.5750  -14.2621   -9.2193 C   0  0  1  0  0  0  0  0  0  0  0  0
    9.8082  -14.5418  -10.5855 O   0  0  0  0  0  0  0  0  0  0  0  0
   10.3298  -12.9786   -8.8887 C   0  0  1  0  0  0  0  0  0  0  0  0
   10.6004  -12.8126   -7.5157 O   0  0  0  0  0  0  0  0  0  0  0  0
   11.5645  -13.1701   -9.7216 C   0  0  1  0  0  0  0  0  0  0  0  0
   12.4274  -14.0837   -9.0882 O   0  0  0  0  0  0  0  0  0  0  0  0
   10.9771  -13.8373  -10.9659 C   0  0  2  0  0  0  0  0  0  0  0  0
   13.0288  -10.7892  -14.5190 N   0  0  0  0  0  0  0  0  0  0  0  0
   13.6270  -11.6035  -13.6008 C   0  0  0  0  0  0  0  0  0  0  0  0
   12.8751  -12.3173  -12.7194 N   0  0  0  0  0  0  0  0  0  0  0  0
   11.5270  -12.1991  -12.7789 C   0  0  0  0  0  0  0  0  0  0  0  0
   10.8963  -11.3927  -13.6868 C   0  0  0  0  0  0  0  0  0  0  0  0
   11.6724  -10.6617  -14.5902 C   0  0  0  0  0  0  0  0  0  0  0  0
   11.1046   -9.7833  -15.5541 N   0  0  0  0  0  0  0  0  0  0  0  0
    9.5270  -11.5250  -13.4528 C   0  0  0  0  0  0  0  0  0  0  0  0
    9.4210  -12.4353  -12.4106 C   0  0  0  0  0  0  0  0  0  0  0  0
   10.6478  -12.8498  -12.0052 N   0  0  0  0  0  0  0  0  0  0  0  0
    7.8307  -10.7045  -14.4133 I   0  0  0  0  0  0  0  0  0  0  0  0
    7.9239  -14.2585   -7.8172 H   0  0  0  0  0  0  0  0  0  0  0  0
    7.5494  -15.0021   -9.4184 H   0  0  0  0  0  0  0  0  0  0  0  0
    7.8479  -12.8341  -10.2959 H   0  0  0  0  0  0  0  0  0  0  0  0
    9.9792  -15.1147   -8.6267 H   0  0  0  0  0  0  0  0  0  0  0  0
    9.7840  -12.0811   -9.2560 H   0  0  0  0  0  0  0  0  0  0  0  0
   11.5554  -12.5684   -7.4023 H   0  0  0  0  0  0  0  0  0  0  0  0
   12.0776  -12.2074   -9.9556 H   0  0  0  0  0  0  0  0  0  0  0  0
   13.0534  -13.5472   -8.5352 H   0  0  0  0  0  0  0  0  0  0  0  0
   11.7050  -14.5682  -11.3840 H   0  0  0  0  0  0  0  0  0  0  0  0
   14.7051  -11.6808  -13.5729 H   0  0  0  0  0  0  0  0  0  0  0  0
   10.4941   -8.9974  -15.2380 H   0  0  0  0  0  0  0  0  0  0  0  0
   11.2319   -9.9092  -16.5768 H   0  0  0  0  0  0  0  0  0  0  0  0
    8.4898  -12.7943  -12.0039 H   0  0  0  0  0  0  0  0  0  0  0  0
  2  1  1  0
  3  1  1  0
  4  3  1  0
  5  3  1  0
  5  6  1  0
  7  5  1  0
  7  8  1  0
  9  4  1  0
  9  7  1  0
 11 10  2  0
 12 11  1  0
 13 12  2  0
 14 13  1  0
 15 14  2  0
 15 10  1  0
 16 15  1  0
 17 14  1  0
 18 17  2  0
 19 18  1  0
 19 13  1  0
  9 19  1  0
 20 17  1  0
  1 21  1  0
  1 22  1  0
  2 23  1  0
  3 24  1  1
  5 25  1  6
  6 26  1  0
  7 27  1  6
  8 28  1  0
  9 29  1  6
 11 30  1  0
 16 31  1  0
 16 32  1  0
 18 33  1  0
M  END
