
     RDKit          3D

 35 37  0  0  0  0  0  0  0  0999 V2000
   44.2173   -3.4655   30.2793 C   0  0  0  0  0  0  0  0  0  0  0  0
   42.9021   -1.7401   33.0242 C   0  0  0  0  0  0  0  0  0  0  0  0
   43.1883   -0.5664   32.3423 O   0  0  0  0  0  0  0  0  0  0  0  0
   42.7142   -1.6571   34.4045 C   0  0  0  0  0  0  0  0  0  0  0  0
   42.3855   -2.7800   35.1434 C   0  0  0  0  0  0  0  0  0  0  0  0
   42.2373   -4.0114   34.5166 C   0  0  0  0  0  0  0  0  0  0  0  0
   42.4522   -4.1218   33.1330 C   0  0  0  0  0  0  0  0  0  0  0  0
   42.7853   -2.9877   32.3645 C   0  0  0  0  0  0  0  0  0  0  0  0
   44.1793   -3.4744   26.5311 C   0  0  0  0  0  0  0  0  0  0  0  0
   45.6373   -2.7040   24.7287 N   0  0  0  0  0  0  0  0  0  0  0  0
   42.7972   -3.1459   26.4310 C   0  0  0  0  0  0  0  0  0  0  0  0
   44.9963   -4.9580   24.6699 N   0  0  0  0  0  0  0  0  0  0  0  0
   42.0270   -2.9214   27.5669 C   0  0  0  0  0  0  0  0  0  0  0  0
   42.0685   -2.8651   29.9717 N   0  0  0  0  0  0  0  0  0  0  0  0
   42.6388   -3.0638   28.7939 C   0  0  0  0  0  0  0  0  0  0  0  0
   43.9438   -3.4135   28.9296 C   0  0  0  0  0  0  0  0  0  0  0  0
   44.7576   -3.6191   27.8237 C   0  0  0  0  0  0  0  0  0  0  0  0
   44.9657   -3.6700   25.2854 C   0  0  0  0  0  0  0  0  0  0  0  0
   43.0137   -3.1176   30.9060 C   0  0  0  0  0  0  0  0  0  0  0  0
   41.9048   -5.2068   35.3540 C   0  0  0  0  0  0  0  0  0  0  0  0
   42.9083   -0.0050   35.3325 Br  0  0  0  0  0  0  0  0  0  0  0  0
   45.1676   -3.7143   30.7308 H   0  0  0  0  0  0  0  0  0  0  0  0
   42.2456   -2.6939   36.2146 H   0  0  0  0  0  0  0  0  0  0  0  0
   42.3661   -5.0965   32.6739 H   0  0  0  0  0  0  0  0  0  0  0  0
   46.1750   -2.8769   23.8498 H   0  0  0  0  0  0  0  0  0  0  0  0
   45.6884   -1.7358   25.1042 H   0  0  0  0  0  0  0  0  0  0  0  0
   42.2842   -3.0772   25.4853 H   0  0  0  0  0  0  0  0  0  0  0  0
   45.7640   -5.1981   24.0036 H   0  0  0  0  0  0  0  0  0  0  0  0
   44.1644   -5.5859   24.6559 H   0  0  0  0  0  0  0  0  0  0  0  0
   40.9801   -2.6563   27.4876 H   0  0  0  0  0  0  0  0  0  0  0  0
   41.1043   -2.4905   30.0532 H   0  0  0  0  0  0  0  0  0  0  0  0
   45.7922   -3.8695   27.9940 H   0  0  0  0  0  0  0  0  0  0  0  0
   42.5850   -5.2680   36.2304 H   0  0  0  0  0  0  0  0  0  0  0  0
   42.0136   -6.1279   34.7438 H   0  0  0  0  0  0  0  0  0  0  0  0
   40.8625   -5.1489   35.7334 H   0  0  0  0  0  0  0  0  0  0  0  0
  3  2  1  0
  4  2  2  0
  5  4  1  0
  6  5  2  0
  7  6  1  0
  8  7  2  0
  8  2  1  0
 11  9  1  0
 13 11  2  0
 15 13  1  0
 15 14  1  0
 16  1  1  0
 16 15  2  0
 17  9  2  0
 17 16  1  0
 18 12  1  0
 18 10  2  0
 18  9  1  0
 19  8  1  0
 19  1  2  0
 19 14  1  0
 20  6  1  0
 21  4  1  0
  1 22  1  0
  5 23  1  0
  7 24  1  0
 10 25  1  0
 10 26  1  0
 11 27  1  0
 12 28  1  0
 12 29  1  0
 13 30  1  0
 14 31  1  0
 17 32  1  0
 20 33  1  0
 20 34  1  0
 20 35  1  0
M  CHG  2   3  -1  10   1
M  END
