
     RDKit          3D

 21 21  0  0  0  0  0  0  0  0999 V2000
   97.8434   56.0741   94.2314 C   0  0  0  0  0  0  0  0  0  0  0  0
   97.0284   57.1938   94.4237 C   0  0  0  0  0  0  0  0  0  0  0  0
   95.9864   57.4624   93.5329 C   0  0  0  0  0  0  0  0  0  0  0  0
   95.7570   56.6107   92.4509 C   0  0  0  0  0  0  0  0  0  0  0  0
   96.5660   55.4900   92.2575 C   0  0  0  0  0  0  0  0  0  0  0  0
   97.6145   55.2135   93.1468 C   0  0  0  0  0  0  0  0  0  0  0  0
   99.8554   54.9319   90.9731 C   0  0  0  0  0  0  0  0  0  0  0  0
   99.3927   54.2103   90.0502 O   0  0  0  0  0  0  0  0  0  0  0  0
   99.8902   54.4466   92.3900 C   0  0  0  0  0  0  0  0  0  0  0  0
  100.4016   56.1654   90.6675 O   0  0  0  0  0  0  0  0  0  0  0  0
   98.5100   54.0225   92.9150 C   0  0  0  0  0  0  0  0  0  0  0  0
   98.6548   55.8823   94.9225 H   0  0  0  0  0  0  0  0  0  0  0  0
   97.2078   57.8557   95.2611 H   0  0  0  0  0  0  0  0  0  0  0  0
   95.3577   58.3309   93.6811 H   0  0  0  0  0  0  0  0  0  0  0  0
   94.9503   56.8202   91.7604 H   0  0  0  0  0  0  0  0  0  0  0  0
   96.3778   54.8407   91.4114 H   0  0  0  0  0  0  0  0  0  0  0  0
  100.5734   53.5718   92.4373 H   0  0  0  0  0  0  0  0  0  0  0  0
  100.3154   55.2350   93.0490 H   0  0  0  0  0  0  0  0  0  0  0  0
   99.8162   56.9884   90.5877 H   0  0  0  0  0  0  0  0  0  0  0  0
   98.6467   53.4731   93.8720 H   0  0  0  0  0  0  0  0  0  0  0  0
   98.0322   53.3092   92.2078 H   0  0  0  0  0  0  0  0  0  0  0  0
  2  1  2  0
  3  2  1  0
  4  3  2  0
  5  4  1  0
  6  5  2  0
  6  1  1  0
  8  7  2  0
  9  7  1  0
 10  7  1  0
 11  6  1  0
 11  9  1  0
  1 12  1  0
  2 13  1  0
  3 14  1  0
  4 15  1  0
  5 16  1  0
  9 17  1  0
  9 18  1  0
 10 19  1  0
 11 20  1  0
 11 21  1  0
M  END
