
     RDKit          3D

 21 21  0  0  0  0  0  0  0  0999 V2000
   70.0512   42.6808   98.8761 C   0  0  0  0  0  0  0  0  0  0  0  0
   70.3639   44.0394   98.7691 C   0  0  0  0  0  0  0  0  0  0  0  0
   71.2094   44.6389   99.7046 C   0  0  0  0  0  0  0  0  0  0  0  0
   71.7534   43.8758  100.7398 C   0  0  0  0  0  0  0  0  0  0  0  0
   71.4481   42.5179  100.8476 C   0  0  0  0  0  0  0  0  0  0  0  0
   70.5888   41.9096   99.9210 C   0  0  0  0  0  0  0  0  0  0  0  0
   69.4074   40.3091  102.4437 C   0  0  0  0  0  0  0  0  0  0  0  0
   70.5287   39.9009  102.8482 O   0  0  0  0  0  0  0  0  0  0  0  0
   69.0405   40.2278  100.9890 C   0  0  0  0  0  0  0  0  0  0  0  0
   68.4939   40.7905  103.3655 O   0  0  0  0  0  0  0  0  0  0  0  0
   70.2387   40.4501  100.0585 C   0  0  0  0  0  0  0  0  0  0  0  0
   69.3843   42.2310   98.1510 H   0  0  0  0  0  0  0  0  0  0  0  0
   69.9442   44.6289   97.9643 H   0  0  0  0  0  0  0  0  0  0  0  0
   71.4472   45.6917   99.6242 H   0  0  0  0  0  0  0  0  0  0  0  0
   72.4127   44.3393  101.4623 H   0  0  0  0  0  0  0  0  0  0  0  0
   71.8760   41.9425  101.6590 H   0  0  0  0  0  0  0  0  0  0  0  0
   68.6229   39.2165  100.7960 H   0  0  0  0  0  0  0  0  0  0  0  0
   68.2439   40.9647  100.7481 H   0  0  0  0  0  0  0  0  0  0  0  0
   68.6533   40.7084  104.3625 H   0  0  0  0  0  0  0  0  0  0  0  0
   69.9899   40.0373   99.0564 H   0  0  0  0  0  0  0  0  0  0  0  0
   71.1180   39.8748  100.4232 H   0  0  0  0  0  0  0  0  0  0  0  0
  2  1  2  0
  3  2  1  0
  4  3  2  0
  5  4  1  0
  6  1  1  0
  6  5  2  0
  8  7  2  0
  9  7  1  0
 10  7  1  0
 11  9  1  0
 11  6  1  0
  1 12  1  0
  2 13  1  0
  3 14  1  0
  4 15  1  0
  5 16  1  0
  9 17  1  0
  9 18  1  0
 10 19  1  0
 11 20  1  0
 11 21  1  0
M  END
