
     RDKit          3D

 21 21  0  0  0  0  0  0  0  0999 V2000
   70.0053   42.3257   99.6551 C   0  0  0  0  0  0  0  0  0  0  0  0
   69.7127   43.5287   99.0053 C   0  0  0  0  0  0  0  0  0  0  0  0
   69.3812   44.6632   99.7485 C   0  0  0  0  0  0  0  0  0  0  0  0
   69.3560   44.5979  101.1433 C   0  0  0  0  0  0  0  0  0  0  0  0
   69.6525   43.4003  101.7964 C   0  0  0  0  0  0  0  0  0  0  0  0
   69.9729   42.2517  101.0583 C   0  0  0  0  0  0  0  0  0  0  0  0
   68.9605   38.8255  102.1831 C   0  0  0  0  0  0  0  0  0  0  0  0
   69.7236   38.0150  102.7734 O   0  0  0  0  0  0  0  0  0  0  0  0
   69.5002   39.7750  101.1513 C   0  0  0  0  0  0  0  0  0  0  0  0
   67.6049   38.7978  102.4615 O   0  0  0  0  0  0  0  0  0  0  0  0
   70.2635   40.9536  101.7669 C   0  0  0  0  0  0  0  0  0  0  0  0
   70.2488   41.4500   99.0663 H   0  0  0  0  0  0  0  0  0  0  0  0
   69.7359   43.5787   97.9244 H   0  0  0  0  0  0  0  0  0  0  0  0
   69.1500   45.5929   99.2449 H   0  0  0  0  0  0  0  0  0  0  0  0
   69.1038   45.4786  101.7197 H   0  0  0  0  0  0  0  0  0  0  0  0
   69.6242   43.3672  102.8785 H   0  0  0  0  0  0  0  0  0  0  0  0
   70.1918   39.2086  100.4916 H   0  0  0  0  0  0  0  0  0  0  0  0
   68.6772   40.1613  100.5117 H   0  0  0  0  0  0  0  0  0  0  0  0
   67.0964   39.6393  102.7053 H   0  0  0  0  0  0  0  0  0  0  0  0
   71.3531   40.7396  101.7068 H   0  0  0  0  0  0  0  0  0  0  0  0
   70.0223   41.0420  102.8491 H   0  0  0  0  0  0  0  0  0  0  0  0
  2  1  2  0
  3  2  1  0
  4  3  2  0
  5  4  1  0
  6  1  1  0
  6  5  2  0
  8  7  2  0
  9  7  1  0
 10  7  1  0
 11  9  1  0
 11  6  1  0
  1 12  1  0
  2 13  1  0
  3 14  1  0
  4 15  1  0
  5 16  1  0
  9 17  1  0
  9 18  1  0
 10 19  1  0
 11 20  1  0
 11 21  1  0
M  END
