
     RDKit          3D

 41 43  0  0  0  0  0  0  0  0999 V2000
   -2.5977    9.8580    6.4716 C   0  0  0  0  0  0  0  0  0  0  0  0
   -2.0369    5.0670    6.4387 N   0  0  0  0  0  0  0  0  0  0  0  0
   -2.6663    7.5543    5.7005 O   0  0  0  0  0  0  0  0  0  0  0  0
   -2.6666   11.2175    6.1751 C   0  0  0  0  0  0  0  0  0  0  0  0
    0.2691    3.4895    6.9237 N   0  0  0  0  0  0  0  0  0  0  0  0
   -2.8043   11.6339    4.8487 C   0  0  0  0  0  0  0  0  0  0  0  0
    2.5823    2.9283    6.3399 N   0  0  0  0  0  0  0  0  0  0  0  0
   -2.8646   10.6920    3.8148 C   0  0  0  0  0  0  0  0  0  0  0  0
    3.5312    2.1520    6.8428 N   0  0  0  0  0  0  0  0  0  0  0  0
   -2.7876    9.3313    4.1095 C   0  0  0  0  0  0  0  0  0  0  0  0
    1.7010    1.8828    8.1001 N   0  0  0  0  0  0  0  0  0  0  0  0
   -2.6714    8.9131    5.4349 C   0  0  0  0  0  0  0  0  0  0  0  0
    3.6688    0.6112    8.7328 N   0  0  0  0  0  0  0  0  0  0  0  0
   -3.5976    6.9964    6.6144 C   0  0  0  0  0  0  0  0  0  0  0  0
   -3.4450    5.4852    6.6297 C   0  0  0  0  0  0  0  0  0  0  0  0
   -1.2420    5.2661    7.6728 C   0  0  0  0  0  0  0  0  0  0  0  0
    0.2067    4.8589    7.4378 C   0  0  0  0  0  0  0  0  0  0  0  0
   -0.5933    3.1568    5.7873 C   0  0  0  0  0  0  0  0  0  0  0  0
   -2.0193    3.6403    6.0463 C   0  0  0  0  0  0  0  0  0  0  0  0
    1.4855    2.7570    7.1047 C   0  0  0  0  0  0  0  0  0  0  0  0
    2.9797    1.5342    7.9035 C   0  0  0  0  0  0  0  0  0  0  0  0
   -2.9114   13.4934    4.4638 Br  0  0  0  0  0  0  0  0  0  0  0  0
   -2.4784    9.5467    7.5006 H   0  0  0  0  0  0  0  0  0  0  0  0
   -2.6130   11.9460    6.9741 H   0  0  0  0  0  0  0  0  0  0  0  0
   -2.9698   11.0158    2.7873 H   0  0  0  0  0  0  0  0  0  0  0  0
   -2.8435    8.6026    3.3106 H   0  0  0  0  0  0  0  0  0  0  0  0
    1.0510    1.5360    8.8391 H   0  0  0  0  0  0  0  0  0  0  0  0
    3.1832    0.1603    9.5395 H   0  0  0  0  0  0  0  0  0  0  0  0
    4.6679    0.3769    8.5415 H   0  0  0  0  0  0  0  0  0  0  0  0
   -3.4478    7.3927    7.6398 H   0  0  0  0  0  0  0  0  0  0  0  0
   -4.6306    7.2615    6.2996 H   0  0  0  0  0  0  0  0  0  0  0  0
   -4.0702    5.0888    5.7979 H   0  0  0  0  0  0  0  0  0  0  0  0
   -3.8571    5.0801    7.5820 H   0  0  0  0  0  0  0  0  0  0  0  0
   -1.6641    4.6734    8.5164 H   0  0  0  0  0  0  0  0  0  0  0  0
   -1.2356    6.3367    7.9656 H   0  0  0  0  0  0  0  0  0  0  0  0
    0.6729    5.5493    6.7010 H   0  0  0  0  0  0  0  0  0  0  0  0
    0.7483    4.9626    8.3993 H   0  0  0  0  0  0  0  0  0  0  0  0
   -0.1963    3.6425    4.8691 H   0  0  0  0  0  0  0  0  0  0  0  0
   -0.6149    2.0565    5.6261 H   0  0  0  0  0  0  0  0  0  0  0  0
   -2.4785    3.0084    6.8414 H   0  0  0  0  0  0  0  0  0  0  0  0
   -2.6017    3.4934    5.1096 H   0  0  0  0  0  0  0  0  0  0  0  0
  4  1  2  0
  6  4  1  0
  8  6  2  0
  9  7  1  0
 10  8  1  0
 12 10  2  0
 12  3  1  0
 12  1  1  0
 14  3  1  0
 15 14  1  0
 15  2  1  0
 16  2  1  0
 17 16  1  0
 17  5  1  0
 18  5  1  0
 19 18  1  0
 19  2  1  0
 20 11  1  0
 20  7  2  0
 20  5  1  0
 21 13  1  0
 21 11  1  0
 21  9  2  0
 22  6  1  0
  1 23  1  0
  4 24  1  0
  8 25  1  0
 10 26  1  0
 11 27  1  0
 13 28  1  0
 13 29  1  0
 14 30  1  0
 14 31  1  0
 15 32  1  0
 15 33  1  0
 16 34  1  0
 16 35  1  0
 17 36  1  0
 17 37  1  0
 18 38  1  0
 18 39  1  0
 19 40  1  0
 19 41  1  0
M  END
