
     RDKit          3D

 41 43  0  0  0  0  0  0  0  0999 V2000
   -2.6457    8.5212    4.8731 C   0  0  0  0  0  0  0  0  0  0  0  0
   -0.4785    4.2998    5.0247 N   0  0  0  0  0  0  0  0  0  0  0  0
   -1.7245    6.5895    3.7215 O   0  0  0  0  0  0  0  0  0  0  0  0
   -3.1772    9.8073    4.8075 C   0  0  0  0  0  0  0  0  0  0  0  0
    1.4275    3.3373    6.8907 N   0  0  0  0  0  0  0  0  0  0  0  0
   -3.2621   10.4628    3.5767 C   0  0  0  0  0  0  0  0  0  0  0  0
    3.6687    2.5262    7.4613 N   0  0  0  0  0  0  0  0  0  0  0  0
   -2.8077    9.8370    2.4098 C   0  0  0  0  0  0  0  0  0  0  0  0
    4.3553    2.3272    8.5771 N   0  0  0  0  0  0  0  0  0  0  0  0
   -2.2682    8.5529    2.4753 C   0  0  0  0  0  0  0  0  0  0  0  0
    2.3096    3.0210    9.1572 N   0  0  0  0  0  0  0  0  0  0  0  0
   -2.2020    7.8889    3.6999 C   0  0  0  0  0  0  0  0  0  0  0  0
    3.8688    2.5605   10.9591 N   0  0  0  0  0  0  0  0  0  0  0  0
   -2.5018    5.5468    4.2892 C   0  0  0  0  0  0  0  0  0  0  0  0
   -1.7228    4.2445    4.2230 C   0  0  0  0  0  0  0  0  0  0  0  0
   -0.7719    4.3331    6.4763 C   0  0  0  0  0  0  0  0  0  0  0  0
    0.5226    4.4226    7.2736 C   0  0  0  0  0  0  0  0  0  0  0  0
    1.6685    3.1344    5.4600 C   0  0  0  0  0  0  0  0  0  0  0  0
    0.3442    3.1139    4.6984 C   0  0  0  0  0  0  0  0  0  0  0  0
    2.4389    2.9428    7.8236 C   0  0  0  0  0  0  0  0  0  0  0  0
    3.5188    2.6341    9.5855 C   0  0  0  0  0  0  0  0  0  0  0  0
   -4.0040   12.2125    3.5039 Br  0  0  0  0  0  0  0  0  0  0  0  0
   -2.5729    8.0275    5.8328 H   0  0  0  0  0  0  0  0  0  0  0  0
   -3.5222   10.2938    5.7109 H   0  0  0  0  0  0  0  0  0  0  0  0
   -2.8727   10.3464    1.4569 H   0  0  0  0  0  0  0  0  0  0  0  0
   -1.9252    8.0654    1.5713 H   0  0  0  0  0  0  0  0  0  0  0  0
    1.4849    3.2944    9.7352 H   0  0  0  0  0  0  0  0  0  0  0  0
    3.3274    3.0973   11.6723 H   0  0  0  0  0  0  0  0  0  0  0  0
    4.6717    1.9680   11.2660 H   0  0  0  0  0  0  0  0  0  0  0  0
   -2.7659    5.7653    5.3444 H   0  0  0  0  0  0  0  0  0  0  0  0
   -3.4513    5.4401    3.7206 H   0  0  0  0  0  0  0  0  0  0  0  0
   -1.4718    4.0721    3.1519 H   0  0  0  0  0  0  0  0  0  0  0  0
   -2.3752    3.4044    4.5543 H   0  0  0  0  0  0  0  0  0  0  0  0
   -1.3396    3.4262    6.7869 H   0  0  0  0  0  0  0  0  0  0  0  0
   -1.3748    5.2288    6.7332 H   0  0  0  0  0  0  0  0  0  0  0  0
    1.0160    5.3993    7.0746 H   0  0  0  0  0  0  0  0  0  0  0  0
    0.2615    4.3802    8.3500 H   0  0  0  0  0  0  0  0  0  0  0  0
    2.3075    3.9585    5.0738 H   0  0  0  0  0  0  0  0  0  0  0  0
    2.1923    2.1684    5.2882 H   0  0  0  0  0  0  0  0  0  0  0  0
   -0.2034    2.1754    4.9470 H   0  0  0  0  0  0  0  0  0  0  0  0
    0.5795    3.0983    3.6110 H   0  0  0  0  0  0  0  0  0  0  0  0
  4  1  2  0
  6  4  1  0
  8  6  2  0
  9  7  1  0
 10  8  1  0
 12 10  2  0
 12  3  1  0
 12  1  1  0
 14  3  1  0
 15 14  1  0
 15  2  1  0
 16  2  1  0
 17 16  1  0
 17  5  1  0
 18  5  1  0
 19 18  1  0
 19  2  1  0
 20 11  1  0
 20  7  2  0
 20  5  1  0
 21 13  1  0
 21 11  1  0
 21  9  2  0
 22  6  1  0
  1 23  1  0
  4 24  1  0
  8 25  1  0
 10 26  1  0
 11 27  1  0
 13 28  1  0
 13 29  1  0
 14 30  1  0
 14 31  1  0
 15 32  1  0
 15 33  1  0
 16 34  1  0
 16 35  1  0
 17 36  1  0
 17 37  1  0
 18 38  1  0
 18 39  1  0
 19 40  1  0
 19 41  1  0
M  END
