
     RDKit          3D

 36 38  0  0  0  0  0  0  0  0999 V2000
   68.1508   54.5497   13.9531 P   0  0  0  0  0  0  0  0  0  0  0  0
   67.3228   54.1818   12.7452 O   0  0  0  0  0  0  0  0  0  0  0  0
   69.3430   53.4004   14.2086 O   0  0  0  0  0  0  0  0  0  0  0  0
   68.8771   56.0426   13.7098 O   0  0  0  0  0  0  0  0  0  0  0  0
   66.2336   53.7015   15.4111 C   0  0  0  0  0  0  0  0  0  0  0  0
   67.2028   54.7181   15.3381 O   0  0  0  0  0  0  0  0  0  0  0  0
   65.4040   54.0067   16.6523 C   0  0  1  0  0  0  0  0  0  0  0  0
   64.7210   55.2268   16.4588 O   0  0  0  0  0  0  0  0  0  0  0  0
   64.3407   52.9818   17.0319 C   0  0  1  0  0  0  0  0  0  0  0  0
   64.8243   51.8073   17.6371 O   0  0  0  0  0  0  0  0  0  0  0  0
   63.4791   53.8139   17.9582 C   0  0  1  0  0  0  0  0  0  0  0  0
   63.9746   53.8184   19.2845 O   0  0  0  0  0  0  0  0  0  0  0  0
   63.5843   55.2036   17.3022 C   0  0  2  0  0  0  0  0  0  0  0  0
   58.8847   57.2344   17.5685 N   0  0  0  0  0  0  0  0  0  0  0  0
   59.8174   57.0424   18.5611 C   0  0  0  0  0  0  0  0  0  0  0  0
   61.0274   56.4781   18.2784 N   0  0  0  0  0  0  0  0  0  0  0  0
   61.2743   56.1204   16.9945 C   0  0  0  0  0  0  0  0  0  0  0  0
   60.3801   56.3023   15.9895 C   0  0  0  0  0  0  0  0  0  0  0  0
   59.1357   56.8744   16.2695 C   0  0  0  0  0  0  0  0  0  0  0  0
   58.2652   57.0586   15.3741 O   0  0  0  0  0  0  0  0  0  0  0  0
   60.8972   55.8677   14.8209 N   0  0  0  0  0  0  0  0  0  0  0  0
   62.1337   55.4223   15.1815 C   0  0  0  0  0  0  0  0  0  0  0  0
   62.3850   55.5459   16.5175 N   0  0  0  0  0  0  0  0  0  0  0  0
   68.9946   52.5690   13.7983 H   0  0  0  0  0  0  0  0  0  0  0  0
   69.4217   56.1940   14.5231 H   0  0  0  0  0  0  0  0  0  0  0  0
   65.5760   53.7046   14.5125 H   0  0  0  0  0  0  0  0  0  0  0  0
   66.7146   52.7058   15.5361 H   0  0  0  0  0  0  0  0  0  0  0  0
   66.1231   54.1339   17.4946 H   0  0  0  0  0  0  0  0  0  0  0  0
   63.7595   52.6994   16.1269 H   0  0  0  0  0  0  0  0  0  0  0  0
   65.5228   52.0585   18.2955 H   0  0  0  0  0  0  0  0  0  0  0  0
   62.4378   53.4285   17.9808 H   0  0  0  0  0  0  0  0  0  0  0  0
   63.2668   54.1378   19.9014 H   0  0  0  0  0  0  0  0  0  0  0  0
   63.7180   55.9730   18.0952 H   0  0  0  0  0  0  0  0  0  0  0  0
   57.9657   57.6661   17.8158 H   0  0  0  0  0  0  0  0  0  0  0  0
   59.5919   57.3379   19.5773 H   0  0  0  0  0  0  0  0  0  0  0  0
   62.8347   55.0112   14.4687 H   0  0  0  0  0  0  0  0  0  0  0  0
  2  1  2  0
  3  1  1  0
  4  1  1  0
  6  5  1  0
  6  1  1  0
  7  5  1  0
  8  7  1  0
  9  7  1  0
  9 10  1  0
 11  9  1  0
 11 12  1  0
 13 11  1  0
 13  8  1  0
 15 14  1  0
 16 15  2  0
 17 16  1  0
 18 17  2  0
 19 18  1  0
 19 14  1  0
 20 19  2  0
 21 18  1  0
 22 21  2  0
 23 22  1  0
 23 17  1  0
 13 23  1  0
  3 24  1  0
  4 25  1  0
  5 26  1  0
  5 27  1  0
  7 28  1  1
  9 29  1  6
 10 30  1  0
 11 31  1  1
 12 32  1  0
 13 33  1  1
 14 34  1  0
 15 35  1  0
 22 36  1  0
M  END
