
     RDKit          3D

 20 21  0  0  0  0  0  0  0  0999 V2000
   15.4566    0.8363   15.1922 N   0  0  0  0  0  0  0  0  0  0  0  0
   14.8753    4.4988   14.5566 N   0  0  0  0  0  0  0  0  0  0  0  0
   13.7442    2.4127   16.4138 O   0  0  0  0  0  0  0  0  0  0  0  0
   15.7220    3.6326   15.1646 C   0  0  0  0  0  0  0  0  0  0  0  0
   17.0359    3.9331   15.0145 N   0  0  0  0  0  0  0  0  0  0  0  0
   16.0134    2.2180   17.3542 O   0  0  0  0  0  0  0  0  0  0  0  0
   15.3876    6.5062   13.2341 C   0  0  0  0  0  0  0  0  0  0  0  0
   16.4625    7.2805   12.7549 C   0  0  0  0  0  0  0  0  0  0  0  0
   17.8026    6.9364   13.0541 C   0  0  0  0  0  0  0  0  0  0  0  0
   18.0855    5.8077   13.8380 C   0  0  0  0  0  0  0  0  0  0  0  0
   17.0002    5.0483   14.2731 C   0  0  0  0  0  0  0  0  0  0  0  0
   15.7048    5.3875   13.9945 C   0  0  0  0  0  0  0  0  0  0  0  0
   15.2015    2.2702   16.0976 S   0  0  0  0  0  0  0  0  0  0  0  0
   14.8330    0.8870   14.3555 H   0  0  0  0  0  0  0  0  0  0  0  0
   16.4393    0.8655   14.8389 H   0  0  0  0  0  0  0  0  0  0  0  0
   13.8314    4.4830   14.5347 H   0  0  0  0  0  0  0  0  0  0  0  0
   14.3609    6.7686   13.0142 H   0  0  0  0  0  0  0  0  0  0  0  0
   16.2597    8.1568   12.1530 H   0  0  0  0  0  0  0  0  0  0  0  0
   18.6126    7.5495   12.6812 H   0  0  0  0  0  0  0  0  0  0  0  0
   19.1034    5.5294   14.0787 H   0  0  0  0  0  0  0  0  0  0  0  0
  4  2  1  0
  5  4  2  0
  8  7  1  0
  9  8  2  0
 10  9  1  0
 11 10  2  0
 11  5  1  0
 12  7  2  0
 12  2  1  0
 12 11  1  0
 13  4  1  0
 13  1  1  0
 13  6  2  0
 13  3  2  0
  1 14  1  0
  1 15  1  0
  2 16  1  0
  7 17  1  0
  8 18  1  0
  9 19  1  0
 10 20  1  0
M  END
