
     RDKit          3D

 36 38  0  0  0  0  0  0  0  0999 V2000
   -4.4633   21.5519   15.0517 P   0  0  0  0  0  0  0  0  0  0  0  0
   -4.2840   21.3108   16.5321 O   0  0  0  0  0  0  0  0  0  0  0  0
   -5.7976   20.7434   14.4335 O   0  0  0  0  0  0  0  0  0  0  0  0
   -3.1007   21.0251   14.2286 O   0  0  0  0  0  0  0  0  0  0  0  0
   -5.8445   23.7003   15.1665 C   0  0  0  0  0  0  0  0  0  0  0  0
   -4.6116   23.1935   14.7230 O   0  0  0  0  0  0  0  0  0  0  0  0
   -5.8759   25.1354   14.6542 C   0  0  1  0  0  0  0  0  0  0  0  0
   -5.8041   25.1363   13.2449 O   0  0  0  0  0  0  0  0  0  0  0  0
   -7.0991   25.9602   15.0048 C   0  0  1  0  0  0  0  0  0  0  0  0
   -7.1024   26.4127   16.3344 O   0  0  0  0  0  0  0  0  0  0  0  0
   -6.9487   27.0943   13.9971 C   0  0  1  0  0  0  0  0  0  0  0  0
   -6.1303   28.1464   14.4709 O   0  0  0  0  0  0  0  0  0  0  0  0
   -6.2728   26.3958   12.8131 C   0  0  2  0  0  0  0  0  0  0  0  0
   -8.5636   28.7897    8.8804 N   0  0  0  0  0  0  0  0  0  0  0  0
   -7.7721   29.3109    9.8736 C   0  0  0  0  0  0  0  0  0  0  0  0
   -7.2599   28.5019   10.8499 N   0  0  0  0  0  0  0  0  0  0  0  0
   -7.5607   27.1805   10.8102 C   0  0  0  0  0  0  0  0  0  0  0  0
   -8.3333   26.6413    9.8427 C   0  0  0  0  0  0  0  0  0  0  0  0
   -8.8570   27.4549    8.8436 C   0  0  0  0  0  0  0  0  0  0  0  0
   -9.5899   26.9838    7.9356 O   0  0  0  0  0  0  0  0  0  0  0  0
   -8.4700   25.3130   10.0369 N   0  0  0  0  0  0  0  0  0  0  0  0
   -7.7400   25.0902   11.1677 C   0  0  0  0  0  0  0  0  0  0  0  0
   -7.1796   26.2263   11.6707 N   0  0  0  0  0  0  0  0  0  0  0  0
   -6.4869   20.8040   15.1422 H   0  0  0  0  0  0  0  0  0  0  0  0
   -2.3613   21.5843   14.5775 H   0  0  0  0  0  0  0  0  0  0  0  0
   -5.8997   23.7023   16.2782 H   0  0  0  0  0  0  0  0  0  0  0  0
   -6.6954   23.1303   14.7306 H   0  0  0  0  0  0  0  0  0  0  0  0
   -4.9643   25.6313   15.0624 H   0  0  0  0  0  0  0  0  0  0  0  0
   -8.0220   25.3713   14.7930 H   0  0  0  0  0  0  0  0  0  0  0  0
   -6.8010   27.3580   16.3069 H   0  0  0  0  0  0  0  0  0  0  0  0
   -7.9443   27.5099   13.7285 H   0  0  0  0  0  0  0  0  0  0  0  0
   -5.3060   28.1997   13.9230 H   0  0  0  0  0  0  0  0  0  0  0  0
   -5.3921   26.9927   12.4842 H   0  0  0  0  0  0  0  0  0  0  0  0
   -8.9447   29.4269    8.1450 H   0  0  0  0  0  0  0  0  0  0  0  0
   -7.5481   30.3695    9.8860 H   0  0  0  0  0  0  0  0  0  0  0  0
   -7.6130   24.1101   11.6073 H   0  0  0  0  0  0  0  0  0  0  0  0
  2  1  2  0
  3  1  1  0
  4  1  1  0
  6  5  1  0
  6  1  1  0
  7  5  1  0
  8  7  1  0
  9  7  1  0
  9 10  1  0
 11  9  1  0
 11 12  1  0
 13  8  1  0
 13 11  1  0
 15 14  1  0
 16 15  2  0
 17 16  1  0
 18 17  2  0
 19 18  1  0
 19 14  1  0
 20 19  2  0
 21 18  1  0
 22 21  2  0
 23 17  1  0
 23 22  1  0
 13 23  1  0
  3 24  1  0
  4 25  1  0
  5 26  1  0
  5 27  1  0
  7 28  1  1
  9 29  1  6
 10 30  1  0
 11 31  1  6
 12 32  1  0
 13 33  1  6
 14 34  1  0
 15 35  1  0
 22 36  1  0
M  END
