
     RDKit          3D

 36 38  0  0  0  0  0  0  0  0999 V2000
   -4.5217   22.8906   15.0815 P   0  0  0  0  0  0  0  0  0  0  0  0
   -4.1670   22.9635   16.5481 O   0  0  0  0  0  0  0  0  0  0  0  0
   -5.7842   21.8253   14.7856 O   0  0  0  0  0  0  0  0  0  0  0  0
   -3.1859   22.3798   14.2061 O   0  0  0  0  0  0  0  0  0  0  0  0
   -5.9515   25.0040   15.2413 C   0  0  0  0  0  0  0  0  0  0  0  0
   -4.9288   24.4081   14.4847 O   0  0  0  0  0  0  0  0  0  0  0  0
   -6.0436   26.4285   14.7070 C   0  0  1  0  0  0  0  0  0  0  0  0
   -5.5919   26.4627   13.3706 O   0  0  0  0  0  0  0  0  0  0  0  0
   -7.4192   27.0663   14.6933 C   0  0  1  0  0  0  0  0  0  0  0  0
   -7.8476   27.4919   15.9614 O   0  0  0  0  0  0  0  0  0  0  0  0
   -7.1612   28.2266   13.7388 C   0  0  1  0  0  0  0  0  0  0  0  0
   -6.6587   29.3759   14.3928 O   0  0  0  0  0  0  0  0  0  0  0  0
   -6.0975   27.6503   12.7991 C   0  0  2  0  0  0  0  0  0  0  0  0
   -8.2944   29.7295    8.6403 N   0  0  0  0  0  0  0  0  0  0  0  0
   -7.9735   30.3161    9.8393 C   0  0  0  0  0  0  0  0  0  0  0  0
   -7.3979   29.5823   10.8395 N   0  0  0  0  0  0  0  0  0  0  0  0
   -7.1613   28.2665   10.6139 C   0  0  0  0  0  0  0  0  0  0  0  0
   -7.4633   27.6655    9.4430 C   0  0  0  0  0  0  0  0  0  0  0  0
   -8.0466   28.4034    8.4184 C   0  0  0  0  0  0  0  0  0  0  0  0
   -8.3503   27.8689    7.3204 O   0  0  0  0  0  0  0  0  0  0  0  0
   -7.1222   26.3606    9.4833 N   0  0  0  0  0  0  0  0  0  0  0  0
   -6.6024   26.2166   10.7364 C   0  0  0  0  0  0  0  0  0  0  0  0
   -6.6262   27.3730   11.4575 N   0  0  0  0  0  0  0  0  0  0  0  0
   -5.5468   21.3739   13.9366 H   0  0  0  0  0  0  0  0  0  0  0  0
   -3.3210   22.7500   13.2974 H   0  0  0  0  0  0  0  0  0  0  0  0
   -5.6866   25.0299   16.3219 H   0  0  0  0  0  0  0  0  0  0  0  0
   -6.9234   24.4843   15.0859 H   0  0  0  0  0  0  0  0  0  0  0  0
   -5.3564   27.0415   15.3361 H   0  0  0  0  0  0  0  0  0  0  0  0
   -8.1575   26.3564   14.2524 H   0  0  0  0  0  0  0  0  0  0  0  0
   -7.2645   28.2557   16.2097 H   0  0  0  0  0  0  0  0  0  0  0  0
   -8.0942   28.5017   13.2005 H   0  0  0  0  0  0  0  0  0  0  0  0
   -7.4094   29.8904   14.7857 H   0  0  0  0  0  0  0  0  0  0  0  0
   -5.2535   28.3709   12.7082 H   0  0  0  0  0  0  0  0  0  0  0  0
   -8.7343   30.3095    7.8906 H   0  0  0  0  0  0  0  0  0  0  0  0
   -8.1746   31.3676    9.9970 H   0  0  0  0  0  0  0  0  0  0  0  0
   -6.2037   25.2826   11.1086 H   0  0  0  0  0  0  0  0  0  0  0  0
  2  1  2  0
  3  1  1  0
  4  1  1  0
  6  5  1  0
  6  1  1  0
  7  5  1  0
  8  7  1  0
  9  7  1  0
  9 10  1  0
 11  9  1  0
 11 12  1  0
 13  8  1  0
 13 11  1  0
 15 14  1  0
 16 15  2  0
 17 16  1  0
 18 17  2  0
 19 18  1  0
 19 14  1  0
 20 19  2  0
 21 18  1  0
 22 21  2  0
 23 17  1  0
 23 22  1  0
 13 23  1  0
  3 24  1  0
  4 25  1  0
  5 26  1  0
  5 27  1  0
  7 28  1  1
  9 29  1  6
 10 30  1  0
 11 31  1  6
 12 32  1  0
 13 33  1  6
 14 34  1  0
 15 35  1  0
 22 36  1  0
M  END
