
     RDKit          3D

 45 46  0  0  0  0  0  0  0  0999 V2000
   -7.6304  -16.8824   -5.1662 C   0  0  0  0  0  0  0  0  0  0  0  0
   -7.4533  -17.1039   -3.7913 C   0  0  0  0  0  0  0  0  0  0  0  0
   -6.2553  -16.7126   -3.1673 C   0  0  0  0  0  0  0  0  0  0  0  0
   -5.2384  -16.1142   -3.9072 C   0  0  0  0  0  0  0  0  0  0  0  0
   -5.4165  -15.8999   -5.2759 C   0  0  0  0  0  0  0  0  0  0  0  0
   -6.6129  -16.2804   -5.9115 C   0  0  0  0  0  0  0  0  0  0  0  0
   -4.4318  -15.2374   -5.9968 O   0  0  0  0  0  0  0  0  0  0  0  0
   -4.2671  -13.8506   -5.9121 C   0  0  0  0  0  0  0  0  0  0  0  0
   -5.1089  -13.0643   -5.0950 C   0  0  0  0  0  0  0  0  0  0  0  0
   -4.9127  -11.6903   -5.0009 C   0  0  0  0  0  0  0  0  0  0  0  0
   -3.8875  -11.0807   -5.7230 C   0  0  0  0  0  0  0  0  0  0  0  0
   -3.0498  -11.8440   -6.5412 C   0  0  0  0  0  0  0  0  0  0  0  0
   -3.2328  -13.2329   -6.6472 C   0  0  0  0  0  0  0  0  0  0  0  0
   -2.3316  -14.0537   -7.5343 C   0  0  0  0  0  0  0  0  0  0  0  0
   -8.5082  -17.8131   -2.9916 C   0  0  0  0  0  0  0  0  0  0  0  0
   -8.8393  -17.0983   -1.6708 C   0  0  0  0  0  0  0  0  0  0  0  0
   -6.7977  -16.0523   -7.2745 O   0  0  0  0  0  0  0  0  0  0  0  0
   -9.8841  -15.9866   -1.8412 C   0  0  0  0  0  0  0  0  0  0  0  0
  -10.7501  -15.8127   -0.5794 C   0  0  0  0  0  0  0  0  0  0  0  0
  -10.9267  -14.3396   -0.1672 C   0  0  0  0  0  0  0  0  0  0  0  0
  -10.2941  -14.0353    1.1847 C   0  0  0  0  0  0  0  0  0  0  0  0
   -8.5491  -17.1798   -5.6571 H   0  0  0  0  0  0  0  0  0  0  0  0
   -6.1084  -16.8837   -2.1079 H   0  0  0  0  0  0  0  0  0  0  0  0
   -4.3218  -15.8065   -3.4203 H   0  0  0  0  0  0  0  0  0  0  0  0
   -5.9102  -13.5036   -4.5167 H   0  0  0  0  0  0  0  0  0  0  0  0
   -5.5570  -11.0933   -4.3682 H   0  0  0  0  0  0  0  0  0  0  0  0
   -3.7390  -10.0112   -5.6485 H   0  0  0  0  0  0  0  0  0  0  0  0
   -2.2603  -11.3495   -7.0933 H   0  0  0  0  0  0  0  0  0  0  0  0
   -2.9414  -14.5955   -8.2876 H   0  0  0  0  0  0  0  0  0  0  0  0
   -1.5971  -13.4167   -8.0715 H   0  0  0  0  0  0  0  0  0  0  0  0
   -1.7744  -14.7909   -6.9188 H   0  0  0  0  0  0  0  0  0  0  0  0
   -9.4262  -17.9806   -3.5964 H   0  0  0  0  0  0  0  0  0  0  0  0
   -8.1246  -18.8293   -2.7511 H   0  0  0  0  0  0  0  0  0  0  0  0
   -9.2285  -17.8764   -0.9783 H   0  0  0  0  0  0  0  0  0  0  0  0
   -7.9223  -16.6835   -1.1980 H   0  0  0  0  0  0  0  0  0  0  0  0
   -6.0377  -15.7847   -7.8881 H   0  0  0  0  0  0  0  0  0  0  0  0
   -9.3919  -15.0348   -2.1381 H   0  0  0  0  0  0  0  0  0  0  0  0
  -10.5764  -16.2541   -2.6694 H   0  0  0  0  0  0  0  0  0  0  0  0
  -11.7605  -16.2135   -0.8171 H   0  0  0  0  0  0  0  0  0  0  0  0
  -10.3771  -16.4416    0.2591 H   0  0  0  0  0  0  0  0  0  0  0  0
  -12.0116  -14.1036   -0.1005 H   0  0  0  0  0  0  0  0  0  0  0  0
  -10.4926  -13.6486   -0.9222 H   0  0  0  0  0  0  0  0  0  0  0  0
   -9.6674  -14.8915    1.5140 H   0  0  0  0  0  0  0  0  0  0  0  0
  -11.0816  -13.8425    1.9441 H   0  0  0  0  0  0  0  0  0  0  0  0
   -9.6511  -13.1336    1.1024 H   0  0  0  0  0  0  0  0  0  0  0  0
  2  1  2  0
  3  2  1  0
  4  3  2  0
  5  4  1  0
  6  1  1  0
  6  5  2  0
  7  5  1  0
  8  7  1  0
  9  8  2  0
 10  9  1  0
 11 10  2  0
 12 11  1  0
 13  8  1  0
 13 12  2  0
 14 13  1  0
 15  2  1  0
 16 15  1  0
 17  6  1  0
 18 16  1  0
 19 18  1  0
 20 19  1  0
 21 20  1  0
  1 22  1  0
  3 23  1  0
  4 24  1  0
  9 25  1  0
 10 26  1  0
 11 27  1  0
 12 28  1  0
 14 29  1  0
 14 30  1  0
 14 31  1  0
 15 32  1  0
 15 33  1  0
 16 34  1  0
 16 35  1  0
 17 36  1  0
 18 37  1  0
 18 38  1  0
 19 39  1  0
 19 40  1  0
 20 41  1  0
 20 42  1  0
 21 43  1  0
 21 44  1  0
 21 45  1  0
M  END
