
     RDKit          3D

 60 62  0  0  0  0  0  0  0  0999 V2000
    8.1364   -4.9928   28.0841 P   0  0  2  0  0  0  0  0  0  0  0  0
    8.3196   -3.7014   25.5923 P   0  0  2  0  0  0  0  0  0  0  0  0
    3.5730   -3.8473   24.7257 C   0  0  0  0  0  0  0  0  0  0  0  0
    2.7431   -4.6057   25.5608 O   0  0  0  0  0  0  0  0  0  0  0  0
    4.6192   -3.0114   25.5032 C   0  0  1  0  0  0  0  0  0  0  0  0
    5.6094   -2.6711   24.5331 O   0  0  0  0  0  0  0  0  0  0  0  0
    3.9904   -1.7706   26.1928 C   0  0  2  0  0  0  0  0  0  0  0  0
    3.2109   -1.0493   25.2692 O   0  0  0  0  0  0  0  0  0  0  0  0
    5.1045   -0.8776   26.7535 C   0  0  2  0  0  0  0  0  0  0  0  0
    4.5337    0.2423   27.3887 O   0  0  0  0  0  0  0  0  0  0  0  0
    6.0311   -0.4637   25.5872 C   0  0  1  0  0  0  0  0  0  0  0  0
    7.0838    0.3399   26.0781 O   0  0  0  0  0  0  0  0  0  0  0  0
    6.6192   -1.7357   24.9305 C   0  0  1  0  0  0  0  0  0  0  0  0
    5.7395   -4.3652   32.5799 C   0  0  1  0  0  0  0  0  0  0  0  0
    6.0589   -5.8242   32.7056 N   0  0  0  0  0  0  0  0  0  0  0  0
    9.1714   -4.0016   28.5711 O   0  0  0  0  0  0  0  0  0  0  0  0
    8.3260   -4.3136   24.2098 O   0  0  0  0  0  0  0  0  0  0  0  0
    5.7534   -6.6915   31.6822 C   0  0  0  0  0  0  0  0  0  0  0  0
    6.9782   -3.4542   32.7620 C   0  0  2  0  0  0  0  0  0  0  0  0
    5.1694   -6.2717   30.6465 O   0  0  0  0  0  0  0  0  0  0  0  0
    8.7774   -6.5440   28.0841 O   0  0  0  0  0  0  0  0  0  0  0  0
    9.9048   -3.4780   26.0732 O   0  0  0  0  0  0  0  0  0  0  0  0
    6.6449   -2.1798   33.2941 O   0  0  0  0  0  0  0  0  0  0  0  0
    7.4364   -3.3574   31.3365 C   0  0  2  0  0  0  0  0  0  0  0  0
    6.0847   -8.0144   31.7710 N   0  0  0  0  0  0  0  0  0  0  0  0
    7.4475   -4.7270   26.5741 O   0  0  0  0  0  0  0  0  0  0  0  0
    7.5701   -2.2108   25.8531 O   0  0  0  0  0  0  0  0  0  0  0  0
    8.3341   -2.3127   31.0703 O   0  0  0  0  0  0  0  0  0  0  0  0
    6.7378   -8.5156   32.8536 C   0  0  0  0  0  0  0  0  0  0  0  0
    6.1073   -3.2398   30.6060 C   0  0  2  0  0  0  0  0  0  0  0  0
    7.0378   -9.7400   32.9023 O   0  0  0  0  0  0  0  0  0  0  0  0
    5.1975   -4.0845   31.2923 O   0  0  0  0  0  0  0  0  0  0  0  0
    7.0768   -7.6638   33.9002 C   0  0  0  0  0  0  0  0  0  0  0  0
    6.2489   -3.6298   29.1379 C   0  0  0  0  0  0  0  0  0  0  0  0
    6.7701   -4.9424   29.0714 O   0  0  0  0  0  0  0  0  0  0  0  0
    6.7346   -6.3158   33.8020 C   0  0  0  0  0  0  0  0  0  0  0  0
    4.1181   -4.5437   24.0485 H   0  0  0  0  0  0  0  0  0  0  0  0
    2.9540   -3.1819   24.0828 H   0  0  0  0  0  0  0  0  0  0  0  0
    2.4738   -5.4032   25.0349 H   0  0  0  0  0  0  0  0  0  0  0  0
    5.0791   -3.6624   26.2774 H   0  0  0  0  0  0  0  0  0  0  0  0
    3.3521   -2.1284   27.0351 H   0  0  0  0  0  0  0  0  0  0  0  0
    3.6021   -1.2113   24.3714 H   0  0  0  0  0  0  0  0  0  0  0  0
    5.6825   -1.4659   27.5026 H   0  0  0  0  0  0  0  0  0  0  0  0
    5.2828    0.8388   27.6505 H   0  0  0  0  0  0  0  0  0  0  0  0
    5.4535    0.0982   24.8154 H   0  0  0  0  0  0  0  0  0  0  0  0
    6.6781    1.1953   26.3768 H   0  0  0  0  0  0  0  0  0  0  0  0
    7.1622   -1.4193   24.0139 H   0  0  0  0  0  0  0  0  0  0  0  0
    4.9732   -4.1093   33.3447 H   0  0  0  0  0  0  0  0  0  0  0  0
    7.7707   -3.9125   33.3895 H   0  0  0  0  0  0  0  0  0  0  0  0
    8.9238   -6.7555   29.0406 H   0  0  0  0  0  0  0  0  0  0  0  0
    9.9864   -3.9708   26.9289 H   0  0  0  0  0  0  0  0  0  0  0  0
    6.1504   -2.2968   34.1462 H   0  0  0  0  0  0  0  0  0  0  0  0
    7.9506   -4.3134   31.0909 H   0  0  0  0  0  0  0  0  0  0  0  0
    5.8379   -8.6563   30.9830 H   0  0  0  0  0  0  0  0  0  0  0  0
    7.8581   -1.4527   31.2056 H   0  0  0  0  0  0  0  0  0  0  0  0
    5.7198   -2.1969   30.6451 H   0  0  0  0  0  0  0  0  0  0  0  0
    7.6069   -8.0336   34.7694 H   0  0  0  0  0  0  0  0  0  0  0  0
    6.8576   -2.8480   28.6255 H   0  0  0  0  0  0  0  0  0  0  0  0
    5.2433   -3.6242   28.6665 H   0  0  0  0  0  0  0  0  0  0  0  0
    7.0432   -5.6710   34.6112 H   0  0  0  0  0  0  0  0  0  0  0  0
  4  3  1  0
  5  3  1  0
  6  5  1  0
  7  5  1  0
  7  8  1  0
  9  7  1  0
  9 10  1  0
 11  9  1  0
 11 12  1  0
 13  6  1  0
 13 11  1  0
 14 15  1  0
 16  1  2  0
 17  2  2  0
 18 15  1  0
 19 14  1  0
 20 18  2  0
  1 21  1  6
  2 22  1  1
 19 23  1  0
 24 19  1  0
 25 18  1  0
 26  2  1  0
 26  1  1  0
 13 27  1  0
 27  2  1  0
 24 28  1  0
 29 25  1  0
 30 24  1  0
 31 29  2  0
 32 30  1  0
 32 14  1  0
 33 29  1  0
 30 34  1  0
 35 34  1  0
 35  1  1  0
 36 33  2  0
 36 15  1  0
  3 37  1  0
  3 38  1  0
  4 39  1  0
  5 40  1  1
  7 41  1  1
  8 42  1  0
  9 43  1  1
 10 44  1  0
 11 45  1  6
 12 46  1  0
 13 47  1  6
 14 48  1  1
 19 49  1  1
 21 50  1  0
 22 51  1  0
 23 52  1  0
 24 53  1  6
 25 54  1  0
 28 55  1  0
 30 56  1  6
 33 57  1  0
 34 58  1  0
 34 59  1  0
 36 60  1  0
M  END
