
     RDKit          3D

 85 89  0  0  0  0  0  0  0  0999 V2000
   33.7115   38.6076   13.6325 P   0  0  1  0  0  0  0  0  0  0  0  0
   35.1820   37.0518   11.7656 P   0  0  2  0  0  0  0  0  0  0  0  0
   33.2225   36.3823    9.8052 P   0  0  1  0  0  0  0  0  0  0  0  0
   34.2209   37.5644    7.4513 P   0  0  2  0  0  0  0  0  0  0  0  0
   36.1036   36.4910    5.5952 P   0  0  1  0  0  0  0  0  0  0  0  0
   30.6563   37.5134   17.9758 C   0  0  1  0  0  0  0  0  0  0  0  0
   34.5973   34.6051    1.3751 C   0  0  1  0  0  0  0  0  0  0  0  0
   29.6414   33.5667    0.4301 N   0  0  0  0  0  0  0  0  0  0  0  0
   30.0076   38.7210   18.5555 N   0  0  0  0  0  0  0  0  0  0  0  0
   35.0716   39.4856   14.0880 O   0  0  0  0  0  0  0  0  0  0  0  0
   35.8237   35.5062   11.8685 O   0  0  0  0  0  0  0  0  0  0  0  0
   33.1521   34.7974   10.3643 O   0  0  0  0  0  0  0  0  0  0  0  0
   35.5697   38.2756    8.1596 O   0  0  0  0  0  0  0  0  0  0  0  0
   37.0344   37.8432    5.2388 O   0  0  0  0  0  0  0  0  0  0  0  0
   30.7666   32.9940   -0.1003 C   0  0  0  0  0  0  0  0  0  0  0  0
   28.7602   38.6506   19.1386 C   0  0  0  0  0  0  0  0  0  0  0  0
   29.9669   36.9869   16.7221 C   0  0  0  0  0  0  0  0  0  0  0  0
   35.6059   35.7338    1.2819 C   0  0  2  0  0  0  0  0  0  0  0  0
   32.8345   39.4235   12.7095 O   0  0  0  0  0  0  0  0  0  0  0  0
   28.0835   37.5853   19.0773 O   0  0  0  0  0  0  0  0  0  0  0  0
   31.9357   37.1288   10.0584 O   0  0  0  0  0  0  0  0  0  0  0  0
   33.0897   38.5452    7.2762 O   0  0  0  0  0  0  0  0  0  0  0  0
   36.7927   35.5909    6.5972 O   0  0  0  0  0  0  0  0  0  0  0  0
   35.5379   36.4127    0.0611 O   0  0  0  0  0  0  0  0  0  0  0  0
   36.2660   38.0928   11.8841 O   0  0  0  0  0  0  0  0  0  0  0  0
   31.0556   36.1610   16.0637 C   0  0  2  0  0  0  0  0  0  0  0  0
   36.9095   34.9824    1.5655 C   0  0  2  0  0  0  0  0  0  0  0  0
   32.0098   33.4433    0.2467 N   0  0  0  0  0  0  0  0  0  0  0  0
   28.2522   39.7255   19.8117 N   0  0  0  0  0  0  0  0  0  0  0  0
   34.0402   37.0939   12.9867 O   0  0  0  0  0  0  0  0  0  0  0  0
   34.5078   37.3522   10.2659 O   0  0  0  0  0  0  0  0  0  0  0  0
   33.6011   36.1896    8.1841 O   0  0  0  0  0  0  0  0  0  0  0  0
   34.5309   36.9849    5.9154 O   0  0  0  0  0  0  0  0  0  0  0  0
   30.8356   34.7888   16.2891 O   0  0  0  0  0  0  0  0  0  0  0  0
   37.3845   34.2617    0.4475 O   0  0  0  0  0  0  0  0  0  0  0  0
   32.0927   34.4714    1.1283 C   0  0  0  0  0  0  0  0  0  0  0  0
   28.9515   40.8876   19.9211 C   0  0  0  0  0  0  0  0  0  0  0  0
   32.3393   36.6715   16.7645 C   0  0  2  0  0  0  0  0  0  0  0  0
   36.4226   33.9851    2.6336 C   0  0  2  0  0  0  0  0  0  0  0  0
   28.5162   41.8158   20.6607 O   0  0  0  0  0  0  0  0  0  0  0  0
   31.9892   37.7649   17.5987 O   0  0  0  0  0  0  0  0  0  0  0  0
   35.0260   33.7560    2.4323 O   0  0  0  0  0  0  0  0  0  0  0  0
   30.9974   35.0848    1.6404 C   0  0  0  0  0  0  0  0  0  0  0  0
   30.1644   41.0270   19.2168 C   0  0  0  0  0  0  0  0  0  0  0  0
   33.3788   37.1357   15.7406 C   0  0  0  0  0  0  0  0  0  0  0  0
   36.6464   34.5361    4.0497 C   0  0  0  0  0  0  0  0  0  0  0  0
   32.8062   38.2089   15.0101 O   0  0  0  0  0  0  0  0  0  0  0  0
   35.8073   35.6554    4.1752 O   0  0  0  0  0  0  0  0  0  0  0  0
   29.7227   34.6216    1.2942 C   0  0  0  0  0  0  0  0  0  0  0  0
   30.6882   39.9039   18.5741 C   0  0  0  0  0  0  0  0  0  0  0  0
   28.5356   35.2392    1.7794 N   0  0  0  0  0  0  0  0  0  0  0  0
   30.9287   42.3205   19.1612 C   0  0  0  0  0  0  0  0  0  0  0  0
   31.3659   36.1224    2.4246 N   0  0  0  0  0  0  0  0  0  0  0  0
   32.7276   36.0863    2.3571 C   0  0  0  0  0  0  0  0  0  0  0  0
   33.2075   35.0735    1.5761 N   0  0  0  0  0  0  0  0  0  0  0  0
   30.6729   36.6942   18.7339 H   0  0  0  0  0  0  0  0  0  0  0  0
   34.6402   34.0204    0.4272 H   0  0  0  0  0  0  0  0  0  0  0  0
   35.6689   38.8222   14.5167 H   0  0  0  0  0  0  0  0  0  0  0  0
   36.4016   35.4193   11.0689 H   0  0  0  0  0  0  0  0  0  0  0  0
   32.2775   34.4542   10.0509 H   0  0  0  0  0  0  0  0  0  0  0  0
   35.2282   38.7056    8.9836 H   0  0  0  0  0  0  0  0  0  0  0  0
   36.5291   38.3190    4.5322 H   0  0  0  0  0  0  0  0  0  0  0  0
   30.6707   32.1687   -0.7922 H   0  0  0  0  0  0  0  0  0  0  0  0
   29.0672   36.3850   16.9767 H   0  0  0  0  0  0  0  0  0  0  0  0
   29.6755   37.8312   16.0590 H   0  0  0  0  0  0  0  0  0  0  0  0
   35.4301   36.4885    2.0720 H   0  0  0  0  0  0  0  0  0  0  0  0
   36.2546   37.0993    0.0817 H   0  0  0  0  0  0  0  0  0  0  0  0
   31.0469   36.3603   14.9660 H   0  0  0  0  0  0  0  0  0  0  0  0
   37.6923   35.6846    1.9375 H   0  0  0  0  0  0  0  0  0  0  0  0
   27.3271   39.6381   20.2917 H   0  0  0  0  0  0  0  0  0  0  0  0
   31.6910   34.3325   16.0762 H   0  0  0  0  0  0  0  0  0  0  0  0
   36.9026   34.6197   -0.3431 H   0  0  0  0  0  0  0  0  0  0  0  0
   32.7887   35.8675   17.3911 H   0  0  0  0  0  0  0  0  0  0  0  0
   36.9687   33.0201    2.5438 H   0  0  0  0  0  0  0  0  0  0  0  0
   34.2924   37.4828   16.2709 H   0  0  0  0  0  0  0  0  0  0  0  0
   33.6295   36.2572   15.1102 H   0  0  0  0  0  0  0  0  0  0  0  0
   36.3626   33.7570    4.7915 H   0  0  0  0  0  0  0  0  0  0  0  0
   37.7219   34.7957    4.1743 H   0  0  0  0  0  0  0  0  0  0  0  0
   31.6546   39.9769   18.0867 H   0  0  0  0  0  0  0  0  0  0  0  0
   28.3216   36.2316    1.5354 H   0  0  0  0  0  0  0  0  0  0  0  0
   27.8644   34.7119    2.3810 H   0  0  0  0  0  0  0  0  0  0  0  0
   31.5012   42.4027   18.2126 H   0  0  0  0  0  0  0  0  0  0  0  0
   30.2350   43.1859   19.2147 H   0  0  0  0  0  0  0  0  0  0  0  0
   31.6347   42.3687   20.0163 H   0  0  0  0  0  0  0  0  0  0  0  0
   33.3532   36.7654    2.9193 H   0  0  0  0  0  0  0  0  0  0  0  0
  6  9  1  0
  1 10  1  1
  2 11  1  6
  3 12  1  1
  4 13  1  1
  5 14  1  6
 15  8  2  0
 16  9  1  0
 17  6  1  0
 18  7  1  0
 19  1  2  0
 20 16  2  0
 21  3  2  0
 22  4  2  0
 23  5  2  0
 18 24  1  0
 25  2  2  0
 26 17  1  0
 27 18  1  0
 28 15  1  0
 29 16  1  0
 30  2  1  0
 30  1  1  0
 31  3  1  0
 31  2  1  0
 32  4  1  0
 32  3  1  0
 33  4  1  0
 33  5  1  0
 26 34  1  0
 27 35  1  0
 36 28  2  0
 37 29  1  0
 38 26  1  0
 39 27  1  0
 40 37  2  0
 41 38  1  0
 41  6  1  0
 42 39  1  0
 42  7  1  0
 43 36  1  0
 44 37  1  0
 38 45  1  0
 39 46  1  0
 47 45  1  0
 47  1  1  0
 48 46  1  0
 48  5  1  0
 49 43  2  0
 49  8  1  0
 50 44  2  0
 50  9  1  0
 51 49  1  0
 52 44  1  0
 53 43  1  0
 54 53  2  0
 55 54  1  0
 55 36  1  0
  7 55  1  0
  6 56  1  1
  7 57  1  6
 10 58  1  0
 11 59  1  0
 12 60  1  0
 13 61  1  0
 14 62  1  0
 15 63  1  0
 17 64  1  0
 17 65  1  0
 18 66  1  1
 24 67  1  0
 26 68  1  6
 27 69  1  1
 29 70  1  0
 34 71  1  0
 35 72  1  0
 38 73  1  1
 39 74  1  1
 45 75  1  0
 45 76  1  0
 46 77  1  0
 46 78  1  0
 50 79  1  0
 51 80  1  0
 51 81  1  0
 52 82  1  0
 52 83  1  0
 52 84  1  0
 54 85  1  0
M  END
