
     RDKit          3D

 85 89  0  0  0  0  0  0  0  0999 V2000
    2.2889   10.4527  111.0783 P   0  0  1  0  0  0  0  0  0  0  0  0
    1.0068   12.1255  109.1782 P   0  0  2  0  0  0  0  0  0  0  0  0
    3.0710   12.8965  107.3592 P   0  0  1  0  0  0  0  0  0  0  0  0
    3.3879   11.9850  104.6701 P   0  0  2  0  0  0  0  0  0  0  0  0
    1.4623   12.1659  102.5321 P   0  0  1  0  0  0  0  0  0  0  0  0
    5.9505   11.0969  115.0691 C   0  0  1  0  0  0  0  0  0  0  0  0
    0.9378   15.1516   98.6041 C   0  0  1  0  0  0  0  0  0  0  0  0
    4.8477   15.5426   95.2107 N   0  0  0  0  0  0  0  0  0  0  0  0
    6.6215    9.8405  115.4773 N   0  0  0  0  0  0  0  0  0  0  0  0
    0.9351    9.6821  111.7037 O   0  0  0  0  0  0  0  0  0  0  0  0
    0.4316   13.6963  109.2796 O   0  0  0  0  0  0  0  0  0  0  0  0
    2.9825   14.4469  108.0116 O   0  0  0  0  0  0  0  0  0  0  0  0
    2.8895   10.3897  104.8654 O   0  0  0  0  0  0  0  0  0  0  0  0
    1.7071   10.7333  101.6923 O   0  0  0  0  0  0  0  0  0  0  0  0
    3.9639   16.5117   95.6176 C   0  0  0  0  0  0  0  0  0  0  0  0
    7.5010    9.8420  116.5325 C   0  0  0  0  0  0  0  0  0  0  0  0
    6.5719   11.7626  113.8443 C   0  0  0  0  0  0  0  0  0  0  0  0
   -0.1795   14.1803   98.9753 C   0  0  2  0  0  0  0  0  0  0  0  0
    2.9505    9.6079  110.0154 O   0  0  0  0  0  0  0  0  0  0  0  0
    7.8327   10.9282  117.0859 O   0  0  0  0  0  0  0  0  0  0  0  0
    4.4208   12.2727  107.6201 O   0  0  0  0  0  0  0  0  0  0  0  0
    4.8934   12.0847  104.6901 O   0  0  0  0  0  0  0  0  0  0  0  0
    0.2830   12.0186  103.4681 O   0  0  0  0  0  0  0  0  0  0  0  0
   -0.9927   13.8836   97.8798 O   0  0  0  0  0  0  0  0  0  0  0  0
   -0.1363   11.1405  109.1365 O   0  0  0  0  0  0  0  0  0  0  0  0
    5.4087   12.5477  113.2538 C   0  0  2  0  0  0  0  0  0  0  0  0
   -0.8649   14.9305  100.0996 C   0  0  2  0  0  0  0  0  0  0  0  0
    2.9661   16.2291   96.5118 N   0  0  0  0  0  0  0  0  0  0  0  0
    8.0025    8.6680  117.0106 N   0  0  0  0  0  0  0  0  0  0  0  0
    1.9786   12.0113  110.5403 O   0  0  0  0  0  0  0  0  0  0  0  0
    1.8761   11.7956  107.7825 O   0  0  0  0  0  0  0  0  0  0  0  0
    2.7246   13.1192  105.7259 O   0  0  0  0  0  0  0  0  0  0  0  0
    2.9388   12.6507  103.1906 O   0  0  0  0  0  0  0  0  0  0  0  0
    5.5897   13.9366  113.3994 O   0  0  0  0  0  0  0  0  0  0  0  0
   -1.6938   15.9502   99.5906 O   0  0  0  0  0  0  0  0  0  0  0  0
    2.9135   14.9671   97.0087 C   0  0  0  0  0  0  0  0  0  0  0  0
    7.6501    7.4713  116.4679 C   0  0  0  0  0  0  0  0  0  0  0  0
    4.2036   12.0457  114.0791 C   0  0  2  0  0  0  0  0  0  0  0  0
    0.3505   15.5632  100.7987 C   0  0  2  0  0  0  0  0  0  0  0  0
    8.0944    6.4023  116.9733 O   0  0  0  0  0  0  0  0  0  0  0  0
    4.6035   10.8675  114.7490 O   0  0  0  0  0  0  0  0  0  0  0  0
    1.3488   15.7992   99.8030 O   0  0  0  0  0  0  0  0  0  0  0  0
    3.7927   13.9995   96.6363 C   0  0  0  0  0  0  0  0  0  0  0  0
    6.8047    7.4441  115.3413 C   0  0  0  0  0  0  0  0  0  0  0  0
    3.0100   11.7392  113.1882 C   0  0  0  0  0  0  0  0  0  0  0  0
    0.9045   14.6476  101.9394 C   0  0  0  0  0  0  0  0  0  0  0  0
    3.3958   10.6784  112.3374 O   0  0  0  0  0  0  0  0  0  0  0  0
    1.2011   13.3830  101.3852 O   0  0  0  0  0  0  0  0  0  0  0  0
    4.7794   14.2718   95.6978 C   0  0  0  0  0  0  0  0  0  0  0  0
    6.3040    8.6590  114.8635 C   0  0  0  0  0  0  0  0  0  0  0  0
    5.6890   13.2705   95.2491 N   0  0  0  0  0  0  0  0  0  0  0  0
    6.5225    6.1740  114.5838 C   0  0  0  0  0  0  0  0  0  0  0  0
    3.5477   12.8546   97.2957 N   0  0  0  0  0  0  0  0  0  0  0  0
    2.4935   13.1814   98.0831 C   0  0  0  0  0  0  0  0  0  0  0  0
    2.0682   14.4722   97.9343 N   0  0  0  0  0  0  0  0  0  0  0  0
    5.9695   11.8276  115.9138 H   0  0  0  0  0  0  0  0  0  0  0  0
    0.5288   15.9268   97.9167 H   0  0  0  0  0  0  0  0  0  0  0  0
    0.4203   10.3987  112.1533 H   0  0  0  0  0  0  0  0  0  0  0  0
   -0.1010   13.7188  110.1145 H   0  0  0  0  0  0  0  0  0  0  0  0
    2.1939   14.8633  107.5808 H   0  0  0  0  0  0  0  0  0  0  0  0
    3.4182    9.8763  104.2040 H   0  0  0  0  0  0  0  0  0  0  0  0
    0.7979   10.4219  101.4528 H   0  0  0  0  0  0  0  0  0  0  0  0
    4.0433   17.5091   95.2078 H   0  0  0  0  0  0  0  0  0  0  0  0
    7.4240   12.4164  114.1319 H   0  0  0  0  0  0  0  0  0  0  0  0
    6.9200   10.9910  113.1223 H   0  0  0  0  0  0  0  0  0  0  0  0
    0.1875   13.2180   99.3641 H   0  0  0  0  0  0  0  0  0  0  0  0
   -1.6933   13.2593   98.2051 H   0  0  0  0  0  0  0  0  0  0  0  0
    5.3247   12.2959  112.1702 H   0  0  0  0  0  0  0  0  0  0  0  0
   -1.4371   14.2500  100.7735 H   0  0  0  0  0  0  0  0  0  0  0  0
    8.6523    8.6860  117.8300 H   0  0  0  0  0  0  0  0  0  0  0  0
    4.6905   14.3178  113.5768 H   0  0  0  0  0  0  0  0  0  0  0  0
   -2.5623   15.5241   99.3688 H   0  0  0  0  0  0  0  0  0  0  0  0
    3.8989   12.8093  114.8325 H   0  0  0  0  0  0  0  0  0  0  0  0
    0.0601   16.5358  101.2530 H   0  0  0  0  0  0  0  0  0  0  0  0
    2.1478   11.4294  113.8187 H   0  0  0  0  0  0  0  0  0  0  0  0
    2.7560   12.6700  112.6374 H   0  0  0  0  0  0  0  0  0  0  0  0
    1.8265   15.1011  102.3633 H   0  0  0  0  0  0  0  0  0  0  0  0
    0.1340   14.5676  102.7386 H   0  0  0  0  0  0  0  0  0  0  0  0
    5.6488    8.6587  113.9994 H   0  0  0  0  0  0  0  0  0  0  0  0
    5.8355   13.1153   94.2270 H   0  0  0  0  0  0  0  0  0  0  0  0
    6.2186   12.6806   95.9288 H   0  0  0  0  0  0  0  0  0  0  0  0
    5.4909    5.8119  114.7808 H   0  0  0  0  0  0  0  0  0  0  0  0
    6.6380    6.3599  113.4956 H   0  0  0  0  0  0  0  0  0  0  0  0
    7.2273    5.3735  114.8926 H   0  0  0  0  0  0  0  0  0  0  0  0
    2.0752   12.4693   98.7770 H   0  0  0  0  0  0  0  0  0  0  0  0
  6  9  1  0
  1 10  1  1
  2 11  1  6
  3 12  1  1
  4 13  1  1
  5 14  1  6
 15  8  2  0
 16  9  1  0
 17  6  1  0
 18  7  1  0
 19  1  2  0
 20 16  2  0
 21  3  2  0
 22  4  2  0
 23  5  2  0
 18 24  1  0
 25  2  2  0
 26 17  1  0
 27 18  1  0
 28 15  1  0
 29 16  1  0
 30  1  1  0
 30  2  1  0
 31  3  1  0
 31  2  1  0
 32  4  1  0
 32  3  1  0
 33  5  1  0
 33  4  1  0
 26 34  1  0
 27 35  1  0
 36 28  2  0
 37 29  1  0
 38 26  1  0
 39 27  1  0
 40 37  2  0
 41 38  1  0
 41  6  1  0
 42 39  1  0
 42  7  1  0
 43 36  1  0
 44 37  1  0
 38 45  1  0
 39 46  1  0
 47  1  1  0
 47 45  1  0
 48 46  1  0
 48  5  1  0
 49 43  2  0
 49  8  1  0
 50 44  2  0
 50  9  1  0
 51 49  1  0
 52 44  1  0
 53 43  1  0
 54 53  2  0
 55 54  1  0
 55 36  1  0
  7 55  1  0
  6 56  1  1
  7 57  1  6
 10 58  1  0
 11 59  1  0
 12 60  1  0
 13 61  1  0
 14 62  1  0
 15 63  1  0
 17 64  1  0
 17 65  1  0
 18 66  1  1
 24 67  1  0
 26 68  1  6
 27 69  1  1
 29 70  1  0
 34 71  1  0
 35 72  1  0
 38 73  1  1
 39 74  1  1
 45 75  1  0
 45 76  1  0
 46 77  1  0
 46 78  1  0
 50 79  1  0
 51 80  1  0
 51 81  1  0
 52 82  1  0
 52 83  1  0
 52 84  1  0
 54 85  1  0
M  END
