
     RDKit          3D

 16 16  0  0  0  0  0  0  0  0999 V2000
   -8.9415   71.7020   16.8392 C   0  0  0  0  0  0  0  0  0  0  0  0
   -8.9325   70.5636   17.6448 C   0  0  0  0  0  0  0  0  0  0  0  0
   -8.3398   69.3877   17.1695 C   0  0  0  0  0  0  0  0  0  0  0  0
   -7.7400   69.3862   15.9068 C   0  0  0  0  0  0  0  0  0  0  0  0
   -7.7629   70.5513   15.1349 C   0  0  0  0  0  0  0  0  0  0  0  0
   -8.3597   71.6725   15.6141 N   0  0  0  0  0  0  0  0  0  0  0  0
   -7.1427   70.5807   13.8565 N   0  0  0  0  0  0  0  0  0  0  0  0
   -8.2999   68.1568   18.0220 C   0  0  0  0  0  0  0  0  0  0  0  0
   -9.4047   72.6135   17.1927 H   0  0  0  0  0  0  0  0  0  0  0  0
   -9.3887   70.5971   18.6265 H   0  0  0  0  0  0  0  0  0  0  0  0
   -7.2564   68.4927   15.5300 H   0  0  0  0  0  0  0  0  0  0  0  0
   -6.4788   71.3485   13.6113 H   0  0  0  0  0  0  0  0  0  0  0  0
   -7.3397   69.8412   13.1457 H   0  0  0  0  0  0  0  0  0  0  0  0
   -8.6582   67.2876   17.4320 H   0  0  0  0  0  0  0  0  0  0  0  0
   -8.9472   68.2796   18.9165 H   0  0  0  0  0  0  0  0  0  0  0  0
   -7.2655   67.9541   18.3728 H   0  0  0  0  0  0  0  0  0  0  0  0
  2  1  2  0
  3  2  1  0
  4  3  2  0
  5  4  1  0
  6  5  2  0
  6  1  1  0
  7  5  1  0
  8  3  1  0
  1  9  1  0
  2 10  1  0
  4 11  1  0
  7 12  1  0
  7 13  1  0
  8 14  1  0
  8 15  1  0
  8 16  1  0
M  END
