
     RDKit          3D

 16 16  0  0  0  0  0  0  0  0999 V2000
   -8.8488   71.2843   16.0702 C   0  0  0  0  0  0  0  0  0  0  0  0
   -8.8398   70.1458   16.8757 C   0  0  0  0  0  0  0  0  0  0  0  0
   -8.2471   68.9700   16.4005 C   0  0  0  0  0  0  0  0  0  0  0  0
   -7.6473   68.9684   15.1377 C   0  0  0  0  0  0  0  0  0  0  0  0
   -7.6702   70.1336   14.3658 C   0  0  0  0  0  0  0  0  0  0  0  0
   -8.2670   71.2548   14.8451 N   0  0  0  0  0  0  0  0  0  0  0  0
   -7.0500   70.1630   13.0875 N   0  0  0  0  0  0  0  0  0  0  0  0
   -8.2072   67.7391   17.2530 C   0  0  0  0  0  0  0  0  0  0  0  0
   -9.3120   72.1958   16.4237 H   0  0  0  0  0  0  0  0  0  0  0  0
   -9.2959   70.1794   17.8574 H   0  0  0  0  0  0  0  0  0  0  0  0
   -7.1636   68.0750   14.7609 H   0  0  0  0  0  0  0  0  0  0  0  0
   -7.1880   70.9819   12.4544 H   0  0  0  0  0  0  0  0  0  0  0  0
   -6.4512   69.3717   12.7616 H   0  0  0  0  0  0  0  0  0  0  0  0
   -9.0450   67.7668   17.9805 H   0  0  0  0  0  0  0  0  0  0  0  0
   -7.2467   67.6790   17.8080 H   0  0  0  0  0  0  0  0  0  0  0  0
   -8.3002   66.8247   16.6289 H   0  0  0  0  0  0  0  0  0  0  0  0
  2  1  2  0
  3  2  1  0
  4  3  2  0
  5  4  1  0
  6  5  2  0
  6  1  1  0
  7  5  1  0
  8  3  1  0
  1  9  1  0
  2 10  1  0
  4 11  1  0
  7 12  1  0
  7 13  1  0
  8 14  1  0
  8 15  1  0
  8 16  1  0
M  END
