
     RDKit          3D

 35 37  0  0  0  0  0  0  0  0999 V2000
    6.4009   75.3138  -71.6801 C   0  0  0  0  0  0  0  0  0  0  0  0
    5.0577   75.0435  -70.4626 S   0  0  0  0  0  0  0  0  0  0  0  0
    6.4034   76.7606  -72.2077 C   0  0  1  0  0  0  0  0  0  0  0  0
    7.7254   77.2442  -72.3656 O   0  0  0  0  0  0  0  0  0  0  0  0
    5.6814   76.9244  -73.5667 C   0  0  1  0  0  0  0  0  0  0  0  0
    4.5400   77.7369  -73.4164 O   0  0  0  0  0  0  0  0  0  0  0  0
    6.7406   77.5738  -74.4536 C   0  0  1  0  0  0  0  0  0  0  0  0
    6.2292   78.5018  -75.3860 O   0  0  0  0  0  0  0  0  0  0  0  0
    7.6360   78.1971  -73.3974 C   0  0  2  0  0  0  0  0  0  0  0  0
   11.4926   81.5227  -72.7759 N   0  0  0  0  0  0  0  0  0  0  0  0
   10.2820   81.4567  -72.1390 C   0  0  0  0  0  0  0  0  0  0  0  0
    9.3737   80.4921  -72.4695 N   0  0  0  0  0  0  0  0  0  0  0  0
    9.7040   79.6035  -73.4393 C   0  0  0  0  0  0  0  0  0  0  0  0
   10.8975   79.6398  -74.0874 C   0  0  0  0  0  0  0  0  0  0  0  0
   11.8366   80.6356  -73.7561 C   0  0  0  0  0  0  0  0  0  0  0  0
   13.1075   80.7456  -74.3958 N   0  0  0  0  0  0  0  0  0  0  0  0
   10.9595   78.6253  -74.9771 N   0  0  0  0  0  0  0  0  0  0  0  0
    9.7560   77.9943  -74.8248 C   0  0  0  0  0  0  0  0  0  0  0  0
    8.9626   78.5814  -73.8914 N   0  0  0  0  0  0  0  0  0  0  0  0
    3.7606   74.5805  -71.6470 C   0  0  0  0  0  0  0  0  0  0  0  0
    7.3532   75.1333  -71.1377 H   0  0  0  0  0  0  0  0  0  0  0  0
    6.3590   74.5669  -72.5012 H   0  0  0  0  0  0  0  0  0  0  0  0
    5.9209   77.4006  -71.4333 H   0  0  0  0  0  0  0  0  0  0  0  0
    5.3710   75.9540  -74.0109 H   0  0  0  0  0  0  0  0  0  0  0  0
    4.6805   78.5870  -73.9095 H   0  0  0  0  0  0  0  0  0  0  0  0
    7.2905   76.7776  -75.0005 H   0  0  0  0  0  0  0  0  0  0  0  0
    5.7463   78.0102  -76.0993 H   0  0  0  0  0  0  0  0  0  0  0  0
    7.1422   79.1099  -72.9843 H   0  0  0  0  0  0  0  0  0  0  0  0
   10.0425   82.1761  -71.3681 H   0  0  0  0  0  0  0  0  0  0  0  0
   13.9360   81.0953  -73.8653 H   0  0  0  0  0  0  0  0  0  0  0  0
   13.2244   80.4791  -75.3986 H   0  0  0  0  0  0  0  0  0  0  0  0
    9.4781   77.1101  -75.3827 H   0  0  0  0  0  0  0  0  0  0  0  0
    2.8249   75.1430  -71.4496 H   0  0  0  0  0  0  0  0  0  0  0  0
    4.1098   74.8259  -72.6707 H   0  0  0  0  0  0  0  0  0  0  0  0
    3.5711   73.4914  -71.5986 H   0  0  0  0  0  0  0  0  0  0  0  0
  2  1  1  0
  3  1  1  0
  4  3  1  0
  5  3  1  0
  5  6  1  0
  7  5  1  0
  7  8  1  0
  9  7  1  0
  9  4  1  0
 11 10  2  0
 12 11  1  0
 13 12  2  0
 14 13  1  0
 15 14  2  0
 15 10  1  0
 16 15  1  0
 17 14  1  0
 18 17  2  0
 19 18  1  0
 19 13  1  0
  9 19  1  0
 20  2  1  0
  1 21  1  0
  1 22  1  0
  3 23  1  1
  5 24  1  6
  6 25  1  0
  7 26  1  6
  8 27  1  0
  9 28  1  1
 11 29  1  0
 16 30  1  0
 16 31  1  0
 18 32  1  0
 20 33  1  0
 20 34  1  0
 20 35  1  0
M  END
