
     RDKit          3D

 35 37  0  0  0  0  0  0  0  0999 V2000
    6.3578   58.9826    1.7409 C   0  0  0  0  0  0  0  0  0  0  0  0
    5.1951   59.2413    0.3557 S   0  0  0  0  0  0  0  0  0  0  0  0
    6.3728   57.5049    2.1856 C   0  0  1  0  0  0  0  0  0  0  0  0
    7.6871   56.9699    2.1221 O   0  0  0  0  0  0  0  0  0  0  0  0
    5.8520   57.3227    3.6293 C   0  0  1  0  0  0  0  0  0  0  0  0
    4.6891   56.5255    3.6456 O   0  0  0  0  0  0  0  0  0  0  0  0
    7.0249   56.6597    4.3354 C   0  0  1  0  0  0  0  0  0  0  0  0
    6.6344   55.7616    5.3487 O   0  0  0  0  0  0  0  0  0  0  0  0
    7.7475   56.0174    3.1585 C   0  0  2  0  0  0  0  0  0  0  0  0
   11.2798   52.2932    2.6644 N   0  0  0  0  0  0  0  0  0  0  0  0
    9.9885   52.3359    2.2155 C   0  0  0  0  0  0  0  0  0  0  0  0
    9.2029   53.4280    2.4548 N   0  0  0  0  0  0  0  0  0  0  0  0
    9.7336   54.4692    3.1435 C   0  0  0  0  0  0  0  0  0  0  0  0
   11.0162   54.4636    3.5906 C   0  0  0  0  0  0  0  0  0  0  0  0
   11.8259   53.3342    3.3580 C   0  0  0  0  0  0  0  0  0  0  0  0
   13.1712   53.2446    3.8140 N   0  0  0  0  0  0  0  0  0  0  0  0
   11.2882   55.6356    4.2055 N   0  0  0  0  0  0  0  0  0  0  0  0
   10.1120   56.3258    4.1045 C   0  0  0  0  0  0  0  0  0  0  0  0
    9.1348   55.6297    3.4634 N   0  0  0  0  0  0  0  0  0  0  0  0
    3.8641   58.1852    0.9960 C   0  0  0  0  0  0  0  0  0  0  0  0
    7.3641   59.2509    1.3548 H   0  0  0  0  0  0  0  0  0  0  0  0
    6.1498   59.6929    2.5686 H   0  0  0  0  0  0  0  0  0  0  0  0
    5.7503   56.9118    1.4773 H   0  0  0  0  0  0  0  0  0  0  0  0
    5.6160   58.2824    4.1378 H   0  0  0  0  0  0  0  0  0  0  0  0
    4.2156   56.6331    2.7797 H   0  0  0  0  0  0  0  0  0  0  0  0
    7.6629   57.4507    4.7861 H   0  0  0  0  0  0  0  0  0  0  0  0
    5.7247   55.4242    5.1424 H   0  0  0  0  0  0  0  0  0  0  0  0
    7.1926   55.1073    2.8272 H   0  0  0  0  0  0  0  0  0  0  0  0
    9.5842   51.4955    1.6682 H   0  0  0  0  0  0  0  0  0  0  0  0
   13.4050   52.7208    4.6866 H   0  0  0  0  0  0  0  0  0  0  0  0
   13.9413   53.7031    3.2783 H   0  0  0  0  0  0  0  0  0  0  0  0
    9.9817   57.3273    4.4921 H   0  0  0  0  0  0  0  0  0  0  0  0
    3.0657   58.0636    0.2350 H   0  0  0  0  0  0  0  0  0  0  0  0
    4.2820   57.1866    1.2375 H   0  0  0  0  0  0  0  0  0  0  0  0
    3.4409   58.6241    1.9210 H   0  0  0  0  0  0  0  0  0  0  0  0
  2  1  1  0
  3  1  1  0
  4  3  1  0
  5  3  1  0
  5  6  1  0
  7  5  1  0
  7  8  1  0
  9  7  1  0
  9  4  1  0
 11 10  2  0
 12 11  1  0
 13 12  2  0
 14 13  1  0
 15 14  2  0
 15 10  1  0
 16 15  1  0
 17 14  1  0
 18 17  2  0
 19 18  1  0
 19 13  1  0
  9 19  1  0
 20  2  1  0
  1 21  1  0
  1 22  1  0
  3 23  1  6
  5 24  1  1
  6 25  1  0
  7 26  1  1
  8 27  1  0
  9 28  1  6
 11 29  1  0
 16 30  1  0
 16 31  1  0
 18 32  1  0
 20 33  1  0
 20 34  1  0
 20 35  1  0
M  END
