
     RDKit          3D

 48 50  0  0  0  0  0  0  0  0999 V2000
  -18.2033    6.0325   33.6154 C   0  0  0  0  0  0  0  0  0  0  0  0
  -17.4736    4.8509   33.8621 C   0  0  0  0  0  0  0  0  0  0  0  0
  -15.5673    2.6131   34.8188 C   0  0  0  0  0  0  0  0  0  0  0  0
  -14.4271    2.8657   37.2734 N   0  0  0  0  0  0  0  0  0  0  0  0
  -18.3468    9.1908   35.4891 O   0  0  0  0  0  0  0  0  0  0  0  0
  -15.1652    4.9914   37.4297 O   0  0  0  0  0  0  0  0  0  0  0  0
  -13.7213    0.7215   37.1289 O   0  0  0  0  0  0  0  0  0  0  0  0
  -19.9296    2.6892   32.8640 O   0  0  0  0  0  0  0  0  0  0  0  0
  -20.7650    4.2686   29.7375 O   0  0  0  0  0  0  0  0  0  0  0  0
  -19.7136    0.5561   31.3739 O   0  0  0  0  0  0  0  0  0  0  0  0
  -19.2011    3.1520   27.9569 O   0  0  0  0  0  0  0  0  0  0  0  0
  -18.5335    8.4060   34.5149 C   0  0  0  0  0  0  0  0  0  0  0  0
  -17.9077    7.0693   34.4937 C   0  0  0  0  0  0  0  0  0  0  0  0
  -16.5796    4.9345   34.9400 C   0  0  0  0  0  0  0  0  0  0  0  0
  -15.7297    3.8265   35.5091 C   0  0  0  0  0  0  0  0  0  0  0  0
  -15.1082    3.9251   36.7648 C   0  0  0  0  0  0  0  0  0  0  0  0
  -14.3242    1.6923   36.5953 C   0  0  0  0  0  0  0  0  0  0  0  0
  -14.8724    1.5597   35.3501 N   0  0  0  0  0  0  0  0  0  0  0  0
  -18.5298    2.8130   30.4818 O   0  0  0  0  0  0  0  0  0  0  0  0
  -16.7428    6.5023   35.5642 S   0  0  0  0  0  0  0  0  0  0  0  0
  -18.9999    1.8336   31.7615 P   0  0  1  0  0  0  0  0  0  0  0  0
  -19.7469    2.9947   29.3522 P   0  0  0  0  0  0  0  0  0  0  0  0
  -16.9306    0.3546   31.8577 C   0  0  0  0  0  0  0  0  0  0  0  0
  -17.5096    1.4868   32.4629 O   0  0  0  0  0  0  0  0  0  0  0  0
  -16.0497   -0.3632   32.8732 C   0  0  1  0  0  0  0  0  0  0  0  0
  -14.9426    0.4438   33.2111 O   0  0  0  0  0  0  0  0  0  0  0  0
  -16.7821   -0.6758   34.1742 C   0  0  1  0  0  0  0  0  0  0  0  0
  -17.5963   -1.8164   34.1167 O   0  0  0  0  0  0  0  0  0  0  0  0
  -15.6392   -0.8078   35.1303 C   0  0  1  0  0  0  0  0  0  0  0  0
  -15.0191   -2.0629   34.9909 O   0  0  0  0  0  0  0  0  0  0  0  0
  -14.7024    0.2786   34.6037 C   0  0  2  0  0  0  0  0  0  0  0  0
  -20.6085    1.5613   29.4506 O   0  0  0  0  0  0  0  0  0  0  0  0
  -18.9336    6.1173   32.8213 H   0  0  0  0  0  0  0  0  0  0  0  0
  -17.6083    3.9712   33.2516 H   0  0  0  0  0  0  0  0  0  0  0  0
  -15.9524    2.5428   33.8315 H   0  0  0  0  0  0  0  0  0  0  0  0
  -13.9822    2.9500   38.2164 H   0  0  0  0  0  0  0  0  0  0  0  0
  -19.5311    3.5954   32.8826 H   0  0  0  0  0  0  0  0  0  0  0  0
  -20.9761    4.1426   30.6970 H   0  0  0  0  0  0  0  0  0  0  0  0
  -19.2058    8.6969   33.7186 H   0  0  0  0  0  0  0  0  0  0  0  0
  -16.2915    0.7007   31.0177 H   0  0  0  0  0  0  0  0  0  0  0  0
  -17.6451   -0.3789   31.4137 H   0  0  0  0  0  0  0  0  0  0  0  0
  -15.6629   -1.2962   32.4035 H   0  0  0  0  0  0  0  0  0  0  0  0
  -17.4036    0.1797   34.5164 H   0  0  0  0  0  0  0  0  0  0  0  0
  -18.2652   -1.6956   33.3937 H   0  0  0  0  0  0  0  0  0  0  0  0
  -15.9516   -0.6229   36.1855 H   0  0  0  0  0  0  0  0  0  0  0  0
  -14.4951   -2.2156   35.8202 H   0  0  0  0  0  0  0  0  0  0  0  0
  -13.6474   -0.0610   34.7118 H   0  0  0  0  0  0  0  0  0  0  0  0
  -21.5450    1.8127   29.2481 H   0  0  0  0  0  0  0  0  0  0  0  0
  2  1  1  0
 12  5  2  0
 13 12  1  0
 13  1  2  0
 14  2  2  0
 15 14  1  0
 15  3  2  0
 16 15  1  0
 16  6  2  0
 16  4  1  0
 17  7  2  0
 17  4  1  0
 18 17  1  0
 18  3  1  0
 20 13  1  0
 20 14  1  0
 21 19  1  6
 21 10  2  0
 21  8  1  0
 22 11  2  0
 22  9  1  0
 22 19  1  0
 24 23  1  0
 24 21  1  0
 25 23  1  0
 26 25  1  0
 27 25  1  0
 27 28  1  0
 29 27  1  0
 29 30  1  0
 31 29  1  0
 31 26  1  0
 31 18  1  0
 32 22  1  0
  1 33  1  0
  2 34  1  0
  3 35  1  0
  4 36  1  0
  8 37  1  0
  9 38  1  0
 12 39  1  0
 23 40  1  0
 23 41  1  0
 25 42  1  6
 27 43  1  1
 28 44  1  0
 29 45  1  1
 30 46  1  0
 31 47  1  6
 32 48  1  0
M  END
