
     RDKit          3D

 48 50  0  0  0  0  0  0  0  0999 V2000
  -36.9835  -54.5302    3.0592 C   0  0  0  0  0  0  0  0  0  0  0  0
  -35.8186  -53.7656    2.8618 C   0  0  0  0  0  0  0  0  0  0  0  0
  -33.0768  -52.5984    2.1217 C   0  0  0  0  0  0  0  0  0  0  0  0
  -31.7640  -53.6244   -0.0311 N   0  0  0  0  0  0  0  0  0  0  0  0
  -38.3437  -57.4188    1.2950 O   0  0  0  0  0  0  0  0  0  0  0  0
  -33.2998  -55.2661   -0.2207 O   0  0  0  0  0  0  0  0  0  0  0  0
  -30.2281  -51.9761    0.1683 O   0  0  0  0  0  0  0  0  0  0  0  0
  -35.9578  -48.5818    3.9500 O   0  0  0  0  0  0  0  0  0  0  0  0
  -37.0340  -49.9678    8.4041 O   0  0  0  0  0  0  0  0  0  0  0  0
  -36.6379  -50.9722    3.2483 O   0  0  0  0  0  0  0  0  0  0  0  0
  -38.5125  -48.8144    6.6256 O   0  0  0  0  0  0  0  0  0  0  0  0
  -38.1215  -56.6876    2.3026 C   0  0  0  0  0  0  0  0  0  0  0  0
  -37.0275  -55.6950    2.3012 C   0  0  0  0  0  0  0  0  0  0  0  0
  -34.9157  -54.3188    1.9433 C   0  0  0  0  0  0  0  0  0  0  0  0
  -33.6131  -53.7278    1.4846 C   0  0  0  0  0  0  0  0  0  0  0  0
  -32.9020  -54.2371    0.3849 C   0  0  0  0  0  0  0  0  0  0  0  0
  -31.2765  -52.5253    0.6026 C   0  0  0  0  0  0  0  0  0  0  0  0
  -31.9151  -52.0154    1.6990 N   0  0  0  0  0  0  0  0  0  0  0  0
  -36.9704  -50.5906    5.7137 O   0  0  0  0  0  0  0  0  0  0  0  0
  -35.6158  -55.7592    1.3899 S   0  0  0  0  0  0  0  0  0  0  0  0
  -36.0059  -50.2071    4.3853 P   0  0  2  0  0  0  0  0  0  0  0  0
  -37.1236  -49.3550    6.8434 P   0  0  0  0  0  0  0  0  0  0  0  0
  -33.5302  -49.8953    5.0825 C   0  0  0  0  0  0  0  0  0  0  0  0
  -34.4545  -50.8576    4.6315 O   0  0  0  0  0  0  0  0  0  0  0  0
  -32.4273  -49.6593    4.0418 C   0  0  1  0  0  0  0  0  0  0  0  0
  -31.6908  -50.8373    3.7882 O   0  0  0  0  0  0  0  0  0  0  0  0
  -32.9774  -49.1901    2.7058 C   0  0  1  0  0  0  0  0  0  0  0  0
  -33.3325  -47.8324    2.6789 O   0  0  0  0  0  0  0  0  0  0  0  0
  -31.8506  -49.5304    1.7795 C   0  0  1  0  0  0  0  0  0  0  0  0
  -30.8447  -48.5507    1.8436 O   0  0  0  0  0  0  0  0  0  0  0  0
  -31.3485  -50.8338    2.4039 C   0  0  2  0  0  0  0  0  0  0  0  0
  -36.0355  -48.0940    6.6380 O   0  0  0  0  0  0  0  0  0  0  0  0
  -37.7705  -54.2358    3.7413 H   0  0  0  0  0  0  0  0  0  0  0  0
  -35.6558  -52.8441    3.3998 H   0  0  0  0  0  0  0  0  0  0  0  0
  -33.5868  -52.2024    2.9716 H   0  0  0  0  0  0  0  0  0  0  0  0
  -31.2507  -54.0063   -0.8588 H   0  0  0  0  0  0  0  0  0  0  0  0
  -36.8515  -48.3912    3.5679 H   0  0  0  0  0  0  0  0  0  0  0  0
  -36.1017  -49.8004    8.6917 H   0  0  0  0  0  0  0  0  0  0  0  0
  -38.7733  -56.7611    3.1631 H   0  0  0  0  0  0  0  0  0  0  0  0
  -33.9762  -48.9197    5.3777 H   0  0  0  0  0  0  0  0  0  0  0  0
  -33.0519  -50.2948    6.0017 H   0  0  0  0  0  0  0  0  0  0  0  0
  -31.7249  -48.9006    4.4570 H   0  0  0  0  0  0  0  0  0  0  0  0
  -33.8632  -49.7931    2.4085 H   0  0  0  0  0  0  0  0  0  0  0  0
  -33.0112  -47.4344    1.8286 H   0  0  0  0  0  0  0  0  0  0  0  0
  -32.2183  -49.6544    0.7339 H   0  0  0  0  0  0  0  0  0  0  0  0
  -31.3089  -47.6744    1.8881 H   0  0  0  0  0  0  0  0  0  0  0  0
  -30.2377  -50.8781    2.3406 H   0  0  0  0  0  0  0  0  0  0  0  0
  -36.2306  -47.4667    7.3792 H   0  0  0  0  0  0  0  0  0  0  0  0
  2  1  1  0
 12  5  2  0
 13 12  1  0
 13  1  2  0
 14  2  2  0
 15 14  1  0
 15  3  2  0
 16  6  2  0
 16 15  1  0
 16  4  1  0
 17  7  2  0
 17  4  1  0
 18  3  1  0
 18 17  1  0
 20 13  1  0
 20 14  1  0
 21 19  1  1
 21 10  2  0
 21  8  1  0
 22 11  2  0
 22 19  1  0
 22  9  1  0
 24 23  1  0
 24 21  1  0
 25 23  1  0
 26 25  1  0
 27 25  1  0
 27 28  1  0
 29 27  1  0
 29 30  1  0
 31 29  1  0
 31 26  1  0
 31 18  1  0
 32 22  1  0
  1 33  1  0
  2 34  1  0
  3 35  1  0
  4 36  1  0
  8 37  1  0
  9 38  1  0
 12 39  1  0
 23 40  1  0
 23 41  1  0
 25 42  1  1
 27 43  1  6
 28 44  1  0
 29 45  1  6
 30 46  1  0
 31 47  1  1
 32 48  1  0
M  END
