
     RDKit          3D

 48 50  0  0  0  0  0  0  0  0999 V2000
  -18.4491    6.7444   34.7953 C   0  0  0  0  0  0  0  0  0  0  0  0
  -17.7524    5.5186   34.8344 C   0  0  0  0  0  0  0  0  0  0  0  0
  -15.8338    3.1393   35.3193 C   0  0  0  0  0  0  0  0  0  0  0  0
  -14.5057    3.0405   37.6889 N   0  0  0  0  0  0  0  0  0  0  0  0
  -18.3955    9.6058   37.0791 O   0  0  0  0  0  0  0  0  0  0  0  0
  -15.1564    5.1449   38.1747 O   0  0  0  0  0  0  0  0  0  0  0  0
  -13.8870    0.9170   37.2150 O   0  0  0  0  0  0  0  0  0  0  0  0
  -20.0407    3.5521   34.0647 O   0  0  0  0  0  0  0  0  0  0  0  0
  -21.7933    1.1353   30.8425 O   0  0  0  0  0  0  0  0  0  0  0  0
  -20.0233    1.0901   33.1954 O   0  0  0  0  0  0  0  0  0  0  0  0
  -22.4152    3.4715   31.8515 O   0  0  0  0  0  0  0  0  0  0  0  0
  -18.5821    9.0099   35.9790 C   0  0  0  0  0  0  0  0  0  0  0  0
  -18.0221    7.6640   35.7469 C   0  0  0  0  0  0  0  0  0  0  0  0
  -16.7536    5.4489   35.8170 C   0  0  0  0  0  0  0  0  0  0  0  0
  -15.9024    4.2556   36.1705 C   0  0  0  0  0  0  0  0  0  0  0  0
  -15.1859    4.1737   37.3757 C   0  0  0  0  0  0  0  0  0  0  0  0
  -14.4941    1.9638   36.8595 C   0  0  0  0  0  0  0  0  0  0  0  0
  -15.1380    2.0088   35.6545 N   0  0  0  0  0  0  0  0  0  0  0  0
  -19.8626    3.0547   31.3499 O   0  0  0  0  0  0  0  0  0  0  0  0
  -16.7839    6.9402   36.6230 S   0  0  0  0  0  0  0  0  0  0  0  0
  -19.5113    2.4812   32.8880 P   0  0  1  0  0  0  0  0  0  0  0  0
  -21.4536    2.7740   30.9251 P   0  0  0  0  0  0  0  0  0  0  0  0
  -17.3382    1.4225   32.0907 C   0  0  0  0  0  0  0  0  0  0  0  0
  -17.8285    2.4968   32.8583 O   0  0  0  0  0  0  0  0  0  0  0  0
  -16.4883    0.5188   32.9758 C   0  0  1  0  0  0  0  0  0  0  0  0
  -15.3234    1.2001   33.3880 O   0  0  0  0  0  0  0  0  0  0  0  0
  -17.2151    0.0799   34.2430 C   0  0  1  0  0  0  0  0  0  0  0  0
  -18.1049   -0.9879   34.0557 O   0  0  0  0  0  0  0  0  0  0  0  0
  -16.0657   -0.2532   35.1406 C   0  0  1  0  0  0  0  0  0  0  0  0
  -15.5339   -1.5148   34.8169 O   0  0  0  0  0  0  0  0  0  0  0  0
  -15.0684    0.8325   34.7385 C   0  0  2  0  0  0  0  0  0  0  0  0
  -21.5861    3.4345   29.3911 O   0  0  0  0  0  0  0  0  0  0  0  0
  -19.2496    6.9434   34.0948 H   0  0  0  0  0  0  0  0  0  0  0  0
  -17.9861    4.7190   34.1481 H   0  0  0  0  0  0  0  0  0  0  0  0
  -16.2937    3.2083   34.3644 H   0  0  0  0  0  0  0  0  0  0  0  0
  -13.9891    2.9898   38.5971 H   0  0  0  0  0  0  0  0  0  0  0  0
  -19.8819    4.4505   33.6802 H   0  0  0  0  0  0  0  0  0  0  0  0
  -21.0499    0.7490   30.3141 H   0  0  0  0  0  0  0  0  0  0  0  0
  -19.2075    9.4687   35.2248 H   0  0  0  0  0  0  0  0  0  0  0  0
  -16.6934    1.8379   31.2873 H   0  0  0  0  0  0  0  0  0  0  0  0
  -18.1086    0.8032   31.5724 H   0  0  0  0  0  0  0  0  0  0  0  0
  -16.1739   -0.3646   32.3746 H   0  0  0  0  0  0  0  0  0  0  0  0
  -17.7713    0.9190   34.7141 H   0  0  0  0  0  0  0  0  0  0  0  0
  -18.7778   -0.7278   33.3744 H   0  0  0  0  0  0  0  0  0  0  0  0
  -16.3449   -0.1937   36.2193 H   0  0  0  0  0  0  0  0  0  0  0  0
  -16.2842   -2.0569   34.4581 H   0  0  0  0  0  0  0  0  0  0  0  0
  -14.0367    0.4148   34.7707 H   0  0  0  0  0  0  0  0  0  0  0  0
  -20.9487    2.9185   28.8357 H   0  0  0  0  0  0  0  0  0  0  0  0
  2  1  1  0
 12  5  2  0
 13 12  1  0
 13  1  2  0
 14  2  2  0
 15 14  1  0
 15  3  2  0
 16 15  1  0
 16  6  2  0
 16  4  1  0
 17  7  2  0
 17  4  1  0
 18 17  1  0
 18  3  1  0
 20 13  1  0
 20 14  1  0
 21 19  1  6
 21 10  2  0
 21  8  1  0
 22 11  2  0
 22  9  1  0
 22 19  1  0
 24 23  1  0
 24 21  1  0
 25 23  1  0
 26 25  1  0
 27 25  1  0
 27 28  1  0
 29 27  1  0
 29 30  1  0
 31 29  1  0
 31 26  1  0
 31 18  1  0
 32 22  1  0
  1 33  1  0
  2 34  1  0
  3 35  1  0
  4 36  1  0
  8 37  1  0
  9 38  1  0
 12 39  1  0
 23 40  1  0
 23 41  1  0
 25 42  1  6
 27 43  1  1
 28 44  1  0
 29 45  1  1
 30 46  1  0
 31 47  1  6
 32 48  1  0
M  END
