
     RDKit          3D

 22 22  0  0  0  0  0  0  0  0999 V2000
   36.7057  -33.5845   32.4496 C   0  0  0  0  0  0  0  0  0  0  0  0
   35.9128  -32.7296   32.9341 O   0  0  0  0  0  0  0  0  0  0  0  0
   38.0640  -33.3600   32.4942 O   0  0  0  0  0  0  0  0  0  0  0  0
   36.1985  -34.7911   31.7902 C   0  0  0  0  0  0  0  0  0  0  0  0
   37.0254  -35.7964   31.4230 C   0  0  0  0  0  0  0  0  0  0  0  0
   36.4692  -37.0764   30.8534 C   0  0  1  0  0  0  0  0  0  0  0  0
   36.0460  -37.9452   31.8825 O   0  0  0  0  0  0  0  0  0  0  0  0
   35.3177  -36.7510   29.8871 C   0  0  1  0  0  0  0  0  0  0  0  0
   34.2061  -35.9418   30.6078 C   0  0  1  0  0  0  0  0  0  0  0  0
   34.7198  -34.8403   31.5579 C   0  0  0  0  0  0  0  0  0  0  0  0
   33.2889  -35.3927   29.6941 O   0  0  0  0  0  0  0  0  0  0  0  0
   35.8191  -36.0765   28.7559 O   0  0  0  0  0  0  0  0  0  0  0  0
   38.6560  -33.8743   33.1355 H   0  0  0  0  0  0  0  0  0  0  0  0
   38.0935  -35.7217   31.5886 H   0  0  0  0  0  0  0  0  0  0  0  0
   37.2764  -37.5884   30.2866 H   0  0  0  0  0  0  0  0  0  0  0  0
   35.2082  -37.5907   32.2786 H   0  0  0  0  0  0  0  0  0  0  0  0
   34.8772  -37.7090   29.5337 H   0  0  0  0  0  0  0  0  0  0  0  0
   33.6362  -36.6694   31.2274 H   0  0  0  0  0  0  0  0  0  0  0  0
   34.4004  -33.8442   31.1777 H   0  0  0  0  0  0  0  0  0  0  0  0
   34.2226  -34.9634   32.5453 H   0  0  0  0  0  0  0  0  0  0  0  0
   32.3758  -35.4951   30.0692 H   0  0  0  0  0  0  0  0  0  0  0  0
   36.1074  -35.1676   29.0295 H   0  0  0  0  0  0  0  0  0  0  0  0
  2  1  2  0
  3  1  1  0
  4  1  1  0
  5  4  2  0
  6  5  1  0
  6  7  1  0
  8  6  1  0
  9  8  1  0
 10  9  1  0
 10  4  1  0
  9 11  1  0
  8 12  1  0
  3 13  1  0
  5 14  1  0
  6 15  1  6
  7 16  1  0
  8 17  1  6
  9 18  1  1
 10 19  1  0
 10 20  1  0
 11 21  1  0
 12 22  1  0
M  END
