
     RDKit          3D

 22 22  0  0  0  0  0  0  0  0999 V2000
   37.4848  -32.0310   33.4733 C   0  0  0  0  0  0  0  0  0  0  0  0
   36.6919  -31.1761   33.9578 O   0  0  0  0  0  0  0  0  0  0  0  0
   38.8430  -31.8065   33.5179 O   0  0  0  0  0  0  0  0  0  0  0  0
   36.9776  -33.2376   32.8139 C   0  0  0  0  0  0  0  0  0  0  0  0
   37.4742  -34.4622   33.1020 C   0  0  0  0  0  0  0  0  0  0  0  0
   36.8589  -35.6994   32.4995 C   0  0  1  0  0  0  0  0  0  0  0  0
   35.7231  -36.1066   33.2321 O   0  0  0  0  0  0  0  0  0  0  0  0
   36.5084  -35.4333   31.0257 C   0  0  1  0  0  0  0  0  0  0  0  0
   35.5445  -34.2230   30.8989 C   0  0  1  0  0  0  0  0  0  0  0  0
   35.8808  -33.0287   31.8156 C   0  0  0  0  0  0  0  0  0  0  0  0
   35.4345  -33.7848   29.5672 O   0  0  0  0  0  0  0  0  0  0  0  0
   37.6895  -35.2543   30.2783 O   0  0  0  0  0  0  0  0  0  0  0  0
   39.3265  -31.7123   34.4032 H   0  0  0  0  0  0  0  0  0  0  0  0
   38.2809  -34.5773   33.8159 H   0  0  0  0  0  0  0  0  0  0  0  0
   37.6058  -36.5211   32.5456 H   0  0  0  0  0  0  0  0  0  0  0  0
   35.0545  -35.3735   33.2231 H   0  0  0  0  0  0  0  0  0  0  0  0
   35.9933  -36.3323   30.6217 H   0  0  0  0  0  0  0  0  0  0  0  0
   34.5362  -34.5892   31.1943 H   0  0  0  0  0  0  0  0  0  0  0  0
   36.1498  -32.1470   31.1920 H   0  0  0  0  0  0  0  0  0  0  0  0
   34.9623  -32.7395   32.3725 H   0  0  0  0  0  0  0  0  0  0  0  0
   34.4711  -33.7318   29.3348 H   0  0  0  0  0  0  0  0  0  0  0  0
   38.0214  -36.1436   29.9900 H   0  0  0  0  0  0  0  0  0  0  0  0
  2  1  2  0
  3  1  1  0
  4  1  1  0
  5  4  2  0
  6  5  1  0
  6  7  1  0
  8  6  1  0
  9  8  1  0
 10  9  1  0
 10  4  1  0
  9 11  1  0
  8 12  1  0
  3 13  1  0
  5 14  1  0
  6 15  1  6
  7 16  1  0
  8 17  1  6
  9 18  1  1
 10 19  1  0
 10 20  1  0
 11 21  1  0
 12 22  1  0
M  END
