
     RDKit          3D

 15 14  0  0  0  0  0  0  0  0999 V2000
   11.8130   29.3342   37.4934 P   0  0  0  0  0  0  0  0  0  0  0  0
   11.2385   30.7096   37.2370 O   0  0  0  0  0  0  0  0  0  0  0  0
   12.9239   29.3825   38.7499 O   0  0  0  0  0  0  0  0  0  0  0  0
   10.5719   28.2698   37.8674 O   0  0  0  0  0  0  0  0  0  0  0  0
   12.6514   28.6618   36.0395 C   0  0  0  0  0  0  0  0  0  0  0  0
   13.7612   29.5481   35.5671 C   0  0  0  0  0  0  0  0  0  0  0  0
   14.8795   29.5734   36.1545 O   0  0  0  0  0  0  0  0  0  0  0  0
   13.5580   30.3373   34.4094 N   0  0  0  0  0  0  0  0  0  0  0  0
   12.4894   30.1068   33.6169 O   0  0  0  0  0  0  0  0  0  0  0  0
   13.7852   29.1188   38.3380 H   0  0  0  0  0  0  0  0  0  0  0  0
   11.0104   27.3855   37.9511 H   0  0  0  0  0  0  0  0  0  0  0  0
   13.0836   27.6749   36.3085 H   0  0  0  0  0  0  0  0  0  0  0  0
   11.9063   28.4907   35.2342 H   0  0  0  0  0  0  0  0  0  0  0  0
   14.2323   31.0927   34.1517 H   0  0  0  0  0  0  0  0  0  0  0  0
   12.6352   30.6787   32.8203 H   0  0  0  0  0  0  0  0  0  0  0  0
  2  1  2  0
  3  1  1  0
  4  1  1  0
  5  1  1  0
  6  5  1  0
  7  6  2  0
  8  6  1  0
  9  8  1  0
  3 10  1  0
  4 11  1  0
  5 12  1  0
  5 13  1  0
  8 14  1  0
  9 15  1  0
M  END
