
     RDKit          3D

 54 56  0  0  0  0  0  0  0  0999 V2000
   17.2995   19.1357  -24.7193 C   0  0  0  0  0  0  0  0  0  0  0  0
   14.8729   11.2712  -21.5404 P   0  0  0  0  0  0  0  0  0  0  0  0
   13.5933   12.0464  -22.2991 O   0  0  0  0  0  0  0  0  0  0  0  0
   15.0207    9.8741  -22.0944 O   0  0  0  0  0  0  0  0  0  0  0  0
   14.5529   11.1988  -19.8961 O   0  0  0  0  0  0  0  0  0  0  0  0
   16.5853   12.3590  -23.1050 C   0  0  0  0  0  0  0  0  0  0  0  0
   16.3104   12.1491  -21.7415 O   0  0  0  0  0  0  0  0  0  0  0  0
   16.3526   13.8283  -23.4712 C   0  0  1  0  0  0  0  0  0  0  0  0
   14.9803   14.1243  -23.4337 O   0  0  0  0  0  0  0  0  0  0  0  0
   17.1502   14.8203  -22.5832 C   0  0  1  0  0  0  0  0  0  0  0  0
   18.5250   14.5619  -22.6972 O   0  0  0  0  0  0  0  0  0  0  0  0
   16.8700   16.2898  -22.9631 C   0  0  1  0  0  0  0  0  0  0  0  0
   17.5018   17.1495  -22.0483 O   0  0  0  0  0  0  0  0  0  0  0  0
   17.2771   16.6248  -24.4259 C   0  0  0  0  0  0  0  0  0  0  0  0
   18.5700   19.2104  -24.2128 N   0  0  0  0  0  0  0  0  0  0  0  0
   19.1627   20.4040  -23.9886 C   0  0  0  0  0  0  0  0  0  0  0  0
   20.3769   20.4406  -23.6575 O   0  0  0  0  0  0  0  0  0  0  0  0
   18.4514   21.5553  -24.1218 N   0  0  0  0  0  0  0  0  0  0  0  0
   17.1728   21.5331  -24.5867 C   0  0  0  0  0  0  0  0  0  0  0  0
   16.6132   20.3263  -25.0259 C   0  0  0  0  0  0  0  0  0  0  0  0
   16.5036   22.5997  -24.6318 O   0  0  0  0  0  0  0  0  0  0  0  0
   14.5410   19.0515  -25.5047 C   0  0  0  0  0  0  0  0  0  0  0  0
   15.2919   20.2726  -25.5985 N   0  0  0  0  0  0  0  0  0  0  0  0
   13.1375   19.0615  -25.5736 C   0  0  0  0  0  0  0  0  0  0  0  0
   12.4143   17.8545  -25.5611 C   0  0  0  0  0  0  0  0  0  0  0  0
   10.9373   17.8470  -25.8470 C   0  0  0  0  0  0  0  0  0  0  0  0
   13.0998   16.6433  -25.3931 C   0  0  0  0  0  0  0  0  0  0  0  0
   12.3866   15.3205  -25.4894 C   0  0  0  0  0  0  0  0  0  0  0  0
   14.4694   16.6600  -25.1619 C   0  0  0  0  0  0  0  0  0  0  0  0
   15.2111   17.8537  -25.1999 C   0  0  0  0  0  0  0  0  0  0  0  0
   16.6260   17.8685  -24.8726 N   0  0  0  0  0  0  0  0  0  0  0  0
   12.7918   11.5078  -22.0784 H   0  0  0  0  0  0  0  0  0  0  0  0
   15.3626   10.7899  -19.4983 H   0  0  0  0  0  0  0  0  0  0  0  0
   17.6559   12.1162  -23.2748 H   0  0  0  0  0  0  0  0  0  0  0  0
   16.0179   11.7018  -23.8055 H   0  0  0  0  0  0  0  0  0  0  0  0
   16.6885   13.9044  -24.5227 H   0  0  0  0  0  0  0  0  0  0  0  0
   14.5301   13.4403  -22.8725 H   0  0  0  0  0  0  0  0  0  0  0  0
   16.8206   14.6782  -21.5249 H   0  0  0  0  0  0  0  0  0  0  0  0
   18.9256   14.6715  -21.7953 H   0  0  0  0  0  0  0  0  0  0  0  0
   15.7823   16.4631  -22.8411 H   0  0  0  0  0  0  0  0  0  0  0  0
   18.4002   17.3713  -22.4046 H   0  0  0  0  0  0  0  0  0  0  0  0
   18.3710   16.6199  -24.5533 H   0  0  0  0  0  0  0  0  0  0  0  0
   17.0187   15.8328  -25.1447 H   0  0  0  0  0  0  0  0  0  0  0  0
   19.1584   18.3810  -24.0091 H   0  0  0  0  0  0  0  0  0  0  0  0
   18.8950   22.4686  -23.8710 H   0  0  0  0  0  0  0  0  0  0  0  0
   14.8108   21.1526  -25.8926 H   0  0  0  0  0  0  0  0  0  0  0  0
   12.6216   20.0000  -25.7360 H   0  0  0  0  0  0  0  0  0  0  0  0
   10.7500   17.4193  -26.8542 H   0  0  0  0  0  0  0  0  0  0  0  0
   10.5207   18.8764  -25.8243 H   0  0  0  0  0  0  0  0  0  0  0  0
   10.3964   17.2521  -25.0817 H   0  0  0  0  0  0  0  0  0  0  0  0
   13.0629   14.5521  -25.9186 H   0  0  0  0  0  0  0  0  0  0  0  0
   12.0515   14.9525  -24.4963 H   0  0  0  0  0  0  0  0  0  0  0  0
   11.4884   15.4243  -26.1333 H   0  0  0  0  0  0  0  0  0  0  0  0
   14.9408   15.7096  -25.0183 H   0  0  0  0  0  0  0  0  0  0  0  0
  3  2  1  0
  4  2  2  0
  5  2  1  0
  7  6  1  0
  7  2  1  0
  8  6  1  0
  8  9  1  0
 10  8  1  0
 10 11  1  0
 12 10  1  0
 12 13  1  0
 14 12  1  0
 15  1  1  0
 16 15  1  0
 17 16  2  0
 18 16  1  0
 19 18  1  0
 20 19  1  0
 20  1  2  0
 21 19  2  0
 23 22  1  0
 23 20  1  0
 24 22  2  0
 25 24  1  0
 26 25  1  0
 27 25  2  0
 28 27  1  0
 29 27  1  0
 30 29  2  0
 30 22  1  0
 31 30  1  0
 31 14  1  0
 31  1  1  0
  3 32  1  0
  5 33  1  0
  6 34  1  0
  6 35  1  0
  8 36  1  6
  9 37  1  0
 10 38  1  1
 11 39  1  0
 12 40  1  6
 13 41  1  0
 14 42  1  0
 14 43  1  0
 15 44  1  0
 18 45  1  0
 23 46  1  0
 24 47  1  0
 26 48  1  0
 26 49  1  0
 26 50  1  0
 28 51  1  0
 28 52  1  0
 28 53  1  0
 29 54  1  0
M  END
