
     RDKit          3D

 61 65  0  0  0  0  0  0  0  0999 V2000
   52.2885   20.9379   44.9625 C   0  0  2  0  0  0  0  0  0  0  0  0
   51.5451   20.8955   43.6622 C   0  0  0  0  0  0  0  0  0  0  0  0
   50.4067   20.3621   43.5776 O   0  0  0  0  0  0  0  0  0  0  0  0
   53.1670   19.6771   45.0116 C   0  0  0  0  0  0  0  0  0  0  0  0
   54.0885   19.6225   46.1900 C   0  0  0  0  0  0  0  0  0  0  0  0
   54.2086   18.5431   47.0573 C   0  0  0  0  0  0  0  0  0  0  0  0
   55.0307   20.5582   46.5979 C   0  0  0  0  0  0  0  0  0  0  0  0
   55.6629   20.0134   47.6894 C   0  0  0  0  0  0  0  0  0  0  0  0
   55.3836   21.8193   46.1035 C   0  0  0  0  0  0  0  0  0  0  0  0
   55.1723   18.7906   47.9710 N   0  0  0  0  0  0  0  0  0  0  0  0
   56.6812   20.6951   48.3638 C   0  0  0  0  0  0  0  0  0  0  0  0
   56.4036   22.5291   46.7687 C   0  0  0  0  0  0  0  0  0  0  0  0
   57.0497   21.9692   47.8931 C   0  0  0  0  0  0  0  0  0  0  0  0
   51.3586   21.0002   46.0947 N   0  0  0  0  0  0  0  0  0  0  0  0
   51.3597   21.5855   41.0687 P   0  0  2  0  0  0  0  0  0  0  0  0
   50.6410   20.1485   40.5567 O   0  0  0  0  0  0  0  0  0  0  0  0
   50.3280   22.6766   41.2616 O   0  0  0  0  0  0  0  0  0  0  0  0
   53.8315   21.8534   40.4835 C   0  0  0  0  0  0  0  0  0  0  0  0
   52.5388   22.0999   39.9712 O   0  0  0  0  0  0  0  0  0  0  0  0
   54.7490   23.0295   40.1129 C   0  0  1  0  0  0  0  0  0  0  0  0
   54.4056   23.4983   38.8163 O   0  0  0  0  0  0  0  0  0  0  0  0
   54.6458   24.2004   41.1112 C   0  0  1  0  0  0  0  0  0  0  0  0
   55.9261   24.7528   41.3117 O   0  0  0  0  0  0  0  0  0  0  0  0
   53.7486   25.1645   40.3573 C   0  0  1  0  0  0  0  0  0  0  0  0
   53.9056   26.5119   40.7420 O   0  0  0  0  0  0  0  0  0  0  0  0
   54.1561   24.8847   38.9103 C   0  0  2  0  0  0  0  0  0  0  0  0
   53.0046   27.9141   34.8858 N   0  0  0  0  0  0  0  0  0  0  0  0
   54.1681   27.8469   35.6046 C   0  0  0  0  0  0  0  0  0  0  0  0
   54.2936   26.9802   36.6535 N   0  0  0  0  0  0  0  0  0  0  0  0
   53.2266   26.1981   36.9591 C   0  0  0  0  0  0  0  0  0  0  0  0
   52.0655   26.2412   36.2629 C   0  0  0  0  0  0  0  0  0  0  0  0
   51.9377   27.1208   35.1877 C   0  0  0  0  0  0  0  0  0  0  0  0
   50.7418   27.2121   34.4230 N   0  0  0  0  0  0  0  0  0  0  0  0
   51.1775   25.3596   36.7706 N   0  0  0  0  0  0  0  0  0  0  0  0
   51.8654   24.7907   37.7983 C   0  0  0  0  0  0  0  0  0  0  0  0
   53.1248   25.2876   37.9437 N   0  0  0  0  0  0  0  0  0  0  0  0
   52.1999   21.3136   42.5242 O   0  0  0  0  0  0  0  0  0  0  0  0
   52.9395   21.8396   44.9804 H   0  0  0  0  0  0  0  0  0  0  0  0
   53.7879   19.6239   44.0897 H   0  0  0  0  0  0  0  0  0  0  0  0
   52.5206   18.7706   45.0188 H   0  0  0  0  0  0  0  0  0  0  0  0
   53.6328   17.6276   47.0169 H   0  0  0  0  0  0  0  0  0  0  0  0
   54.8858   22.2414   45.2399 H   0  0  0  0  0  0  0  0  0  0  0  0
   55.4764   18.1547   48.7414 H   0  0  0  0  0  0  0  0  0  0  0  0
   57.1731   20.2563   49.2222 H   0  0  0  0  0  0  0  0  0  0  0  0
   56.6955   23.5087   46.4131 H   0  0  0  0  0  0  0  0  0  0  0  0
   57.8335   22.5220   48.3944 H   0  0  0  0  0  0  0  0  0  0  0  0
   50.7461   21.8415   45.9851 H   0  0  0  0  0  0  0  0  0  0  0  0
   50.7445   20.1528   46.1008 H   0  0  0  0  0  0  0  0  0  0  0  0
   50.0056   19.9140   41.2793 H   0  0  0  0  0  0  0  0  0  0  0  0
   53.8840   21.6973   41.5869 H   0  0  0  0  0  0  0  0  0  0  0  0
   54.2242   20.9315   40.0032 H   0  0  0  0  0  0  0  0  0  0  0  0
   55.7936   22.6463   40.0877 H   0  0  0  0  0  0  0  0  0  0  0  0
   54.1847   23.9161   42.0861 H   0  0  0  0  0  0  0  0  0  0  0  0
   56.3786   24.1767   41.9817 H   0  0  0  0  0  0  0  0  0  0  0  0
   52.6873   24.8728   40.5180 H   0  0  0  0  0  0  0  0  0  0  0  0
   53.3339   27.0747   40.1582 H   0  0  0  0  0  0  0  0  0  0  0  0
   55.1071   25.4155   38.6756 H   0  0  0  0  0  0  0  0  0  0  0  0
   54.9981   28.4865   35.3382 H   0  0  0  0  0  0  0  0  0  0  0  0
   50.4864   26.4525   33.7537 H   0  0  0  0  0  0  0  0  0  0  0  0
   50.1052   28.0343   34.5187 H   0  0  0  0  0  0  0  0  0  0  0  0
   51.4493   24.0170   38.4296 H   0  0  0  0  0  0  0  0  0  0  0  0
  2  1  1  0
  3  2  2  0
  4  1  1  0
  5  4  1  0
  6  5  2  0
  7  5  1  0
  8  7  2  0
  9  7  1  0
 10  6  1  0
 10  8  1  0
 11  8  1  0
 12  9  2  0
 13 11  2  0
 13 12  1  0
  1 14  1  0
 15 16  1  6
 17 15  2  0
 19 18  1  0
 19 15  1  0
 20 18  1  0
 21 20  1  0
 22 20  1  0
 22 23  1  0
 24 22  1  0
 24 25  1  0
 26 24  1  0
 26 21  1  0
 28 27  2  0
 29 28  1  0
 30 29  2  0
 31 30  1  0
 32 31  2  0
 32 27  1  0
 33 32  1  0
 34 31  1  0
 35 34  2  0
 36 35  1  0
 36 30  1  0
 26 36  1  0
 37 15  1  0
 37  2  1  0
  1 38  1  6
  4 39  1  0
  4 40  1  0
  6 41  1  0
  9 42  1  0
 10 43  1  0
 11 44  1  0
 12 45  1  0
 13 46  1  0
 14 47  1  0
 14 48  1  0
 16 49  1  0
 18 50  1  0
 18 51  1  0
 20 52  1  6
 22 53  1  1
 23 54  1  0
 24 55  1  6
 25 56  1  0
 26 57  1  6
 28 58  1  0
 33 59  1  0
 33 60  1  0
 35 61  1  0
M  END
