
     RDKit          3D

 35 37  0  0  0  0  0  0  0  0999 V2000
   36.5780   -0.1946   15.6648 Cl  0  0  0  0  0  0  0  0  0  0  0  0
   34.1172   -0.4710   20.4683 Cl  0  0  0  0  0  0  0  0  0  0  0  0
   29.9100   -2.8949   19.3827 C   0  0  0  0  0  0  0  0  0  0  0  0
   29.2293   -2.0385   20.1954 N   0  0  0  0  0  0  0  0  0  0  0  0
   33.9110   -0.8858   14.5058 O   0  0  0  0  0  0  0  0  0  0  0  0
   31.5254   -1.2084   18.8462 C   0  0  0  0  0  0  0  0  0  0  0  0
   31.0375   -2.4803   18.7313 N   0  0  0  0  0  0  0  0  0  0  0  0
   29.6843   -0.7677   20.3238 C   0  0  0  0  0  0  0  0  0  0  0  0
   29.1087    0.1842   21.0756 N   0  0  0  0  0  0  0  0  0  0  0  0
   30.8097   -0.3088   19.6766 C   0  0  0  0  0  0  0  0  0  0  0  0
   32.7006    2.7859   19.3069 N   0  0  0  0  0  0  0  0  0  0  0  0
   30.9283    1.0388   20.0548 C   0  0  0  0  0  0  0  0  0  0  0  0
   29.8641    1.2936   20.9278 C   0  0  0  0  0  0  0  0  0  0  0  0
   29.4509   -4.3052   19.2331 C   0  0  0  0  0  0  0  0  0  0  0  0
   32.7527   -0.8816   18.0808 C   0  0  0  0  0  0  0  0  0  0  0  0
   33.9750   -0.5778   18.7195 C   0  0  0  0  0  0  0  0  0  0  0  0
   35.1311   -0.3725   17.9586 C   0  0  0  0  0  0  0  0  0  0  0  0
   35.0969   -0.4742   16.5663 C   0  0  0  0  0  0  0  0  0  0  0  0
   33.9005   -0.7963   15.9078 C   0  0  0  0  0  0  0  0  0  0  0  0
   32.7329   -1.0163   16.6757 C   0  0  0  0  0  0  0  0  0  0  0  0
   32.7642   -1.1818   13.7170 C   0  0  0  0  0  0  0  0  0  0  0  0
   31.9147    2.0069   19.6464 C   0  0  0  0  0  0  0  0  0  0  0  0
   29.5402    2.5946   21.6032 C   0  0  0  0  0  0  0  0  0  0  0  0
   28.2468    0.0828   21.6569 H   0  0  0  0  0  0  0  0  0  0  0  0
   29.6680   -4.6728   18.2079 H   0  0  0  0  0  0  0  0  0  0  0  0
   28.3576   -4.3587   19.4157 H   0  0  0  0  0  0  0  0  0  0  0  0
   29.9754   -4.9577   19.9628 H   0  0  0  0  0  0  0  0  0  0  0  0
   36.0642   -0.1350   18.4545 H   0  0  0  0  0  0  0  0  0  0  0  0
   31.8030   -1.2817   16.1900 H   0  0  0  0  0  0  0  0  0  0  0  0
   32.1586   -0.2601   13.5981 H   0  0  0  0  0  0  0  0  0  0  0  0
   32.1430   -1.9527   14.2200 H   0  0  0  0  0  0  0  0  0  0  0  0
   33.0735   -1.5357   12.7108 H   0  0  0  0  0  0  0  0  0  0  0  0
   28.5098    2.5714   22.0160 H   0  0  0  0  0  0  0  0  0  0  0  0
   30.2535    2.7742   22.4345 H   0  0  0  0  0  0  0  0  0  0  0  0
   29.6185    3.4221   20.8680 H   0  0  0  0  0  0  0  0  0  0  0  0
  4  3  2  0
  7  6  2  0
  7  3  1  0
  8  4  1  0
  9  8  1  0
 10  8  2  0
 10  6  1  0
 12 10  1  0
 13 12  2  0
 13  9  1  0
 14  3  1  0
 15  6  1  0
 16 15  2  0
 16  2  1  0
 17 16  1  0
 18  1  1  0
 18 17  2  0
 19 18  1  0
 19  5  1  0
 20 15  1  0
 20 19  2  0
 21  5  1  0
 22 12  1  0
 22 11  3  0
 23 13  1  0
  9 24  1  0
 14 25  1  0
 14 26  1  0
 14 27  1  0
 17 28  1  0
 20 29  1  0
 21 30  1  0
 21 31  1  0
 21 32  1  0
 23 33  1  0
 23 34  1  0
 23 35  1  0
M  END
