
     RDKit          3D

 35 37  0  0  0  0  0  0  0  0999 V2000
    9.5508   -1.4838   53.7031 Cl  0  0  0  0  0  0  0  0  0  0  0  0
   12.4253   -2.1658   49.1691 Cl  0  0  0  0  0  0  0  0  0  0  0  0
   16.8477   -2.8463   50.4937 C   0  0  0  0  0  0  0  0  0  0  0  0
   17.4508   -1.8454   49.7928 N   0  0  0  0  0  0  0  0  0  0  0  0
   12.1615   -0.8424   54.9934 O   0  0  0  0  0  0  0  0  0  0  0  0
   14.9299   -1.4770   50.9272 C   0  0  0  0  0  0  0  0  0  0  0  0
   15.6177   -2.6515   51.0562 N   0  0  0  0  0  0  0  0  0  0  0  0
   16.7963   -0.6664   49.6527 C   0  0  0  0  0  0  0  0  0  0  0  0
   17.2659    0.3996   48.9857 N   0  0  0  0  0  0  0  0  0  0  0  0
   15.5519   -0.4337   50.1944 C   0  0  0  0  0  0  0  0  0  0  0  0
   13.1270    2.2827   50.4446 N   0  0  0  0  0  0  0  0  0  0  0  0
   15.2369    0.8893   49.8403 C   0  0  0  0  0  0  0  0  0  0  0  0
   16.3184    1.3566   49.0824 C   0  0  0  0  0  0  0  0  0  0  0  0
   17.5457   -4.1504   50.6823 C   0  0  0  0  0  0  0  0  0  0  0  0
   13.5963   -1.4019   51.5684 C   0  0  0  0  0  0  0  0  0  0  0  0
   12.4142   -1.7364   50.8736 C   0  0  0  0  0  0  0  0  0  0  0  0
   11.1870   -1.7549   51.5467 C   0  0  0  0  0  0  0  0  0  0  0  0
   11.1166   -1.4553   52.9092 C   0  0  0  0  0  0  0  0  0  0  0  0
   12.2795   -1.1407   53.6264 C   0  0  0  0  0  0  0  0  0  0  0  0
   13.5219   -1.1337   52.9511 C   0  0  0  0  0  0  0  0  0  0  0  0
   13.2665   -0.5798   55.8504 C   0  0  0  0  0  0  0  0  0  0  0  0
   14.0644    1.6577   50.1787 C   0  0  0  0  0  0  0  0  0  0  0  0
   16.4767    2.7193   48.4738 C   0  0  0  0  0  0  0  0  0  0  0  0
   18.1832    0.4705   48.4912 H   0  0  0  0  0  0  0  0  0  0  0  0
   16.8649   -4.9781   50.3944 H   0  0  0  0  0  0  0  0  0  0  0  0
   17.8440   -4.2760   51.7446 H   0  0  0  0  0  0  0  0  0  0  0  0
   18.4577   -4.1911   50.0499 H   0  0  0  0  0  0  0  0  0  0  0  0
   10.2828   -2.0078   51.0069 H   0  0  0  0  0  0  0  0  0  0  0  0
   14.4340   -0.9112   53.4894 H   0  0  0  0  0  0  0  0  0  0  0  0
   14.0503   -1.3450   55.6755 H   0  0  0  0  0  0  0  0  0  0  0  0
   12.9476   -0.6342   56.9127 H   0  0  0  0  0  0  0  0  0  0  0  0
   13.6924    0.4216   55.6288 H   0  0  0  0  0  0  0  0  0  0  0  0
   17.4887    2.8307   48.0309 H   0  0  0  0  0  0  0  0  0  0  0  0
   15.7201    2.8648   47.6747 H   0  0  0  0  0  0  0  0  0  0  0  0
   16.3354    3.4923   49.2572 H   0  0  0  0  0  0  0  0  0  0  0  0
  4  3  2  0
  7  6  2  0
  7  3  1  0
  8  4  1  0
  9  8  1  0
 10  6  1  0
 10  8  2  0
 12 10  1  0
 13 12  2  0
 13  9  1  0
 14  3  1  0
 15  6  1  0
 16 15  2  0
 16  2  1  0
 17 16  1  0
 18  1  1  0
 18 17  2  0
 19 18  1  0
 19  5  1  0
 20 19  2  0
 20 15  1  0
 21  5  1  0
 22 12  1  0
 22 11  3  0
 23 13  1  0
  9 24  1  0
 14 25  1  0
 14 26  1  0
 14 27  1  0
 17 28  1  0
 20 29  1  0
 21 30  1  0
 21 31  1  0
 21 32  1  0
 23 33  1  0
 23 34  1  0
 23 35  1  0
M  END
