
     RDKit          3D

 19 18  0  0  0  0  0  0  0  0999 V2000
   58.6018    8.3543   28.2797 P   0  0  0  0  0  0  0  0  0  0  0  0
   58.1193    7.4701   29.7667 C   0  0  0  0  0  0  0  0  0  0  0  0
   58.8027    8.0806   30.8943 N   0  0  0  0  0  0  0  0  0  0  0  0
   58.7114    9.8344   28.5621 O   0  0  0  0  0  0  0  0  0  0  0  0
   60.1069    8.6166   30.5220 C   0  0  0  0  0  0  0  0  0  0  0  0
   57.4229    8.0541   27.1347 O   0  0  0  0  0  0  0  0  0  0  0  0
   60.7765    9.1726   31.7333 C   0  0  0  0  0  0  0  0  0  0  0  0
   60.0821    7.7760   27.7474 O   0  0  0  0  0  0  0  0  0  0  0  0
   60.6112    8.6483   32.8701 O   0  0  0  0  0  0  0  0  0  0  0  0
   61.5919   10.2734   31.5923 O   0  0  0  0  0  0  0  0  0  0  0  0
   58.3958    6.3977   29.6646 H   0  0  0  0  0  0  0  0  0  0  0  0
   57.0175    7.5560   29.8938 H   0  0  0  0  0  0  0  0  0  0  0  0
   58.2072    8.8572   31.2719 H   0  0  0  0  0  0  0  0  0  0  0  0
   58.9468    7.3495   31.6320 H   0  0  0  0  0  0  0  0  0  0  0  0
   60.7495    7.8145   30.0954 H   0  0  0  0  0  0  0  0  0  0  0  0
   59.9904    9.4282   29.7698 H   0  0  0  0  0  0  0  0  0  0  0  0
   56.6203    7.7956   27.6547 H   0  0  0  0  0  0  0  0  0  0  0  0
   60.3100    7.0454   28.3762 H   0  0  0  0  0  0  0  0  0  0  0  0
   62.5618   10.2430   31.8833 H   0  0  0  0  0  0  0  0  0  0  0  0
  2  1  1  0
  3  2  1  0
  4  1  2  0
  5  3  1  0
  6  1  1  0
  7  5  1  0
  8  1  1  0
  9  7  2  0
 10  7  1  0
  2 11  1  0
  2 12  1  0
  3 13  1  0
  3 14  1  0
  5 15  1  0
  5 16  1  0
  6 17  1  0
  8 18  1  0
 10 19  1  0
M  CHG  1   3   1
M  END
