
     RDKit          3D

 46 49  0  0  0  0  0  0  0  0999 V2000
   24.7584   35.9748   41.8026 C   0  0  0  0  0  0  0  0  0  0  0  0
   23.3079   35.6210   41.9447 C   0  0  1  0  0  0  0  0  0  0  0  0
   25.4929   36.2074   40.6405 C   0  0  0  0  0  0  0  0  0  0  0  0
   22.3878   36.7169   41.4357 C   0  0  0  0  0  0  0  0  0  0  0  0
   26.8349   36.5916   40.7690 C   0  0  0  0  0  0  0  0  0  0  0  0
   26.6660   36.4901   43.1975 C   0  0  0  0  0  0  0  0  0  0  0  0
   21.1795   35.9616   40.9213 C   0  0  2  0  0  0  0  0  0  0  0  0
   27.4158   36.7402   42.0425 C   0  0  0  0  0  0  0  0  0  0  0  0
   20.1730   35.7599   42.0107 C   0  0  0  0  0  0  0  0  0  0  0  0
   21.6720   34.6580   40.4438 N   0  0  0  0  0  0  0  0  0  0  0  0
   19.8369   34.4530   42.3407 O   0  0  0  0  0  0  0  0  0  0  0  0
   19.6658   36.7406   42.6241 O   0  0  0  0  0  0  0  0  0  0  0  0
   22.8967   34.3483   41.1961 C   0  0  0  0  0  0  0  0  0  0  0  0
   23.2225   35.4996   43.4485 C   0  0  0  0  0  0  0  0  0  0  0  0
   22.1869   35.1984   44.0915 O   0  0  0  0  0  0  0  0  0  0  0  0
   24.4413   35.8234   44.0906 N   0  0  0  0  0  0  0  0  0  0  0  0
   25.3410   36.1071   43.0448 C   0  0  0  0  0  0  0  0  0  0  0  0
   18.8075   34.0883   43.2466 C   0  0  0  0  0  0  0  0  0  0  0  0
   17.8356   33.1988   42.4629 C   0  0  0  0  0  0  0  0  0  0  0  0
   16.6023   32.8396   43.2915 C   0  0  0  0  0  0  0  0  0  0  0  0
   15.8954   34.1058   43.7782 C   0  0  0  0  0  0  0  0  0  0  0  0
   16.8445   35.0163   44.5637 C   0  0  0  0  0  0  0  0  0  0  0  0
   18.0945   35.3585   43.7459 C   0  0  0  0  0  0  0  0  0  0  0  0
   19.3620   33.3195   44.3831 C   0  0  0  0  0  0  0  0  0  0  0  0
   19.7965   32.7198   45.2714 N   0  0  0  0  0  0  0  0  0  0  0  0
   25.0368   36.1091   39.6639 H   0  0  0  0  0  0  0  0  0  0  0  0
   22.8544   37.2486   40.5764 H   0  0  0  0  0  0  0  0  0  0  0  0
   22.1353   37.4789   42.2079 H   0  0  0  0  0  0  0  0  0  0  0  0
   27.4256   36.7839   39.8828 H   0  0  0  0  0  0  0  0  0  0  0  0
   27.1068   36.5960   44.1803 H   0  0  0  0  0  0  0  0  0  0  0  0
   20.6938   36.5237   40.0917 H   0  0  0  0  0  0  0  0  0  0  0  0
   28.4513   37.0426   42.1292 H   0  0  0  0  0  0  0  0  0  0  0  0
   21.9296   34.7649   39.4337 H   0  0  0  0  0  0  0  0  0  0  0  0
   23.6957   33.9999   40.5028 H   0  0  0  0  0  0  0  0  0  0  0  0
   22.6856   33.5146   41.9007 H   0  0  0  0  0  0  0  0  0  0  0  0
   24.6321   35.8424   45.1170 H   0  0  0  0  0  0  0  0  0  0  0  0
   18.3466   32.2630   42.1437 H   0  0  0  0  0  0  0  0  0  0  0  0
   17.5096   33.7264   41.5384 H   0  0  0  0  0  0  0  0  0  0  0  0
   15.9005   32.2497   42.6634 H   0  0  0  0  0  0  0  0  0  0  0  0
   16.8874   32.2075   44.1606 H   0  0  0  0  0  0  0  0  0  0  0  0
   15.0408   33.8203   44.4287 H   0  0  0  0  0  0  0  0  0  0  0  0
   15.4868   34.6618   42.9057 H   0  0  0  0  0  0  0  0  0  0  0  0
   16.3128   35.9561   44.8264 H   0  0  0  0  0  0  0  0  0  0  0  0
   17.1361   34.5196   45.5148 H   0  0  0  0  0  0  0  0  0  0  0  0
   18.7822   35.9683   44.3715 H   0  0  0  0  0  0  0  0  0  0  0  0
   17.7970   35.9827   42.8741 H   0  0  0  0  0  0  0  0  0  0  0  0
  2  1  1  0
  3  1  2  0
  2  4  1  6
  5  3  1  0
  7  4  1  0
  8  6  1  0
  8  5  2  0
  7  9  1  0
 10  7  1  0
 11  9  1  0
 12  9  2  0
 13 10  1  0
 13  2  1  0
 14  2  1  0
 15 14  2  0
 16 14  1  0
 17 16  1  0
 17  6  2  0
 17  1  1  0
 18 11  1  0
 19 18  1  0
 20 19  1  0
 21 20  1  0
 22 21  1  0
 23 22  1  0
 23 18  1  0
 18 24  1  0
 25 24  3  0
  3 26  1  0
  4 27  1  0
  4 28  1  0
  5 29  1  0
  6 30  1  0
  7 31  1  6
  8 32  1  0
 10 33  1  0
 13 34  1  0
 13 35  1  0
 16 36  1  0
 19 37  1  0
 19 38  1  0
 20 39  1  0
 20 40  1  0
 21 41  1  0
 21 42  1  0
 22 43  1  0
 22 44  1  0
 23 45  1  0
 23 46  1  0
M  END
