
     RDKit          3D

 37 38  0  0  0  0  0  0  0  0999 V2000
   35.6463   35.9808   17.3645 P   0  0  0  0  0  0  0  0  0  0  0  0
   36.2506   37.1011   18.1783 O   0  0  0  0  0  0  0  0  0  0  0  0
   35.3536   36.4786   15.7882 O   0  0  0  0  0  0  0  0  0  0  0  0
   36.7109   34.6898   17.3145 O   0  0  0  0  0  0  0  0  0  0  0  0
   34.2836   34.9727   19.3103 C   0  0  0  0  0  0  0  0  0  0  0  0
   34.1527   35.4973   18.0078 O   0  0  0  0  0  0  0  0  0  0  0  0
   33.6083   35.9243   20.3087 C   0  0  1  0  0  0  0  0  0  0  0  0
   32.2791   36.2170   19.9205 O   0  0  0  0  0  0  0  0  0  0  0  0
   33.5679   35.3567   21.7143 C   0  0  1  0  0  0  0  0  0  0  0  0
   34.6952   35.7464   22.4531 O   0  0  0  0  0  0  0  0  0  0  0  0
   32.3006   35.9639   22.2510 C   0  0  1  0  0  0  0  0  0  0  0  0
   32.5323   37.3031   22.6132 O   0  0  0  0  0  0  0  0  0  0  0  0
   31.3975   35.9311   21.0005 C   0  0  2  0  0  0  0  0  0  0  0  0
   30.6428   34.6578   20.7135 N   0  0  0  0  0  0  0  0  0  0  0  0
   30.7710   33.4970   21.4694 C   0  0  0  0  0  0  0  0  0  0  0  0
   31.5012   33.4417   22.4884 O   0  0  0  0  0  0  0  0  0  0  0  0
   30.0900   32.3689   21.1401 N   0  0  0  0  0  0  0  0  0  0  0  0
   29.2312   32.3361   20.1008 C   0  0  0  0  0  0  0  0  0  0  0  0
   28.6111   31.2743   19.8306 O   0  0  0  0  0  0  0  0  0  0  0  0
   29.0236   33.4771   19.3468 C   0  0  0  0  0  0  0  0  0  0  0  0
   29.7120   34.6476   19.6786 C   0  0  0  0  0  0  0  0  0  0  0  0
   29.3716   35.8518   18.8911 C   0  0  0  0  0  0  0  0  0  0  0  0
   29.1924   36.9550   19.4690 O   0  0  0  0  0  0  0  0  0  0  0  0
   29.2933   35.7764   17.5107 O   0  0  0  0  0  0  0  0  0  0  0  0
   34.9244   35.7005   15.3508 H   0  0  0  0  0  0  0  0  0  0  0  0
   37.5392   35.0573   16.9146 H   0  0  0  0  0  0  0  0  0  0  0  0
   33.7572   33.9943   19.3305 H   0  0  0  0  0  0  0  0  0  0  0  0
   35.3343   34.7806   19.6311 H   0  0  0  0  0  0  0  0  0  0  0  0
   34.1769   36.8817   20.3119 H   0  0  0  0  0  0  0  0  0  0  0  0
   33.4739   34.2441   21.6977 H   0  0  0  0  0  0  0  0  0  0  0  0
   34.5574   36.6996   22.6934 H   0  0  0  0  0  0  0  0  0  0  0  0
   32.0138   35.4392   23.1713 H   0  0  0  0  0  0  0  0  0  0  0  0
   33.2720   37.6308   22.0371 H   0  0  0  0  0  0  0  0  0  0  0  0
   30.6513   36.7520   21.0753 H   0  0  0  0  0  0  0  0  0  0  0  0
   30.2200   31.5050   21.7163 H   0  0  0  0  0  0  0  0  0  0  0  0
   28.3121   33.4630   18.5282 H   0  0  0  0  0  0  0  0  0  0  0  0
   29.8888   35.1439   16.9896 H   0  0  0  0  0  0  0  0  0  0  0  0
  2  1  2  0
  3  1  1  0
  4  1  1  0
  6  5  1  0
  6  1  1  0
  7  5  1  0
  8  7  1  0
  9  7  1  0
  9 10  1  0
 11  9  1  0
 11 12  1  0
 13  8  1  0
 13 11  1  0
 13 14  1  0
 15 14  1  0
 16 15  2  0
 17 15  1  0
 18 17  1  0
 19 18  2  0
 20 18  1  0
 21 20  2  0
 21 14  1  0
 22 21  1  0
 23 22  2  0
 24 22  1  0
  3 25  1  0
  4 26  1  0
  5 27  1  0
  5 28  1  0
  7 29  1  1
  9 30  1  6
 10 31  1  0
 11 32  1  1
 12 33  1  0
 13 34  1  1
 17 35  1  0
 20 36  1  0
 24 37  1  0
M  END
