
     RDKit          3D

 37 38  0  0  0  0  0  0  0  0999 V2000
   81.8073   51.3820   50.8857 P   0  0  0  0  0  0  0  0  0  0  0  0
   80.3191   51.3383   50.6301 O   0  0  0  0  0  0  0  0  0  0  0  0
   82.2804   52.9058   51.4073 O   0  0  0  0  0  0  0  0  0  0  0  0
   82.1919   50.2802   52.0856 O   0  0  0  0  0  0  0  0  0  0  0  0
   84.0181   51.4878   49.5471 C   0  0  0  0  0  0  0  0  0  0  0  0
   82.6748   51.0696   49.4606 O   0  0  0  0  0  0  0  0  0  0  0  0
   84.7347   51.0766   48.2521 C   0  0  1  0  0  0  0  0  0  0  0  0
   86.1352   51.2632   48.3435 O   0  0  0  0  0  0  0  0  0  0  0  0
   84.4793   49.6346   47.8774 C   0  0  1  0  0  0  0  0  0  0  0  0
   83.3373   49.5179   47.0697 O   0  0  0  0  0  0  0  0  0  0  0  0
   85.7403   49.2924   47.1332 C   0  0  1  0  0  0  0  0  0  0  0  0
   85.6819   49.8242   45.8329 O   0  0  0  0  0  0  0  0  0  0  0  0
   86.8003   50.0694   47.9455 C   0  0  2  0  0  0  0  0  0  0  0  0
   87.3766   49.3826   49.1562 N   0  0  0  0  0  0  0  0  0  0  0  0
   87.5268   48.0033   49.2434 C   0  0  0  0  0  0  0  0  0  0  0  0
   87.2605   47.2418   48.2807 O   0  0  0  0  0  0  0  0  0  0  0  0
   87.9947   47.4219   50.3773 N   0  0  0  0  0  0  0  0  0  0  0  0
   88.3859   48.1528   51.4409 C   0  0  0  0  0  0  0  0  0  0  0  0
   88.8211   47.5758   52.4720 O   0  0  0  0  0  0  0  0  0  0  0  0
   88.3218   49.5350   51.3849 C   0  0  0  0  0  0  0  0  0  0  0  0
   87.8442   50.1491   50.2217 C   0  0  0  0  0  0  0  0  0  0  0  0
   87.9261   51.6280   50.1785 C   0  0  0  0  0  0  0  0  0  0  0  0
   88.5581   52.1947   49.2495 O   0  0  0  0  0  0  0  0  0  0  0  0
   87.2897   52.3942   51.1420 O   0  0  0  0  0  0  0  0  0  0  0  0
   83.2696   52.8944   51.3576 H   0  0  0  0  0  0  0  0  0  0  0  0
   82.9065   50.7186   52.6130 H   0  0  0  0  0  0  0  0  0  0  0  0
   84.0318   52.5948   49.6426 H   0  0  0  0  0  0  0  0  0  0  0  0
   84.5792   51.0625   50.4121 H   0  0  0  0  0  0  0  0  0  0  0  0
   84.3629   51.7374   47.4358 H   0  0  0  0  0  0  0  0  0  0  0  0
   84.3887   48.9934   48.7872 H   0  0  0  0  0  0  0  0  0  0  0  0
   83.1558   48.5461   46.9802 H   0  0  0  0  0  0  0  0  0  0  0  0
   85.7869   48.2006   47.0291 H   0  0  0  0  0  0  0  0  0  0  0  0
   86.5641   49.6455   45.4132 H   0  0  0  0  0  0  0  0  0  0  0  0
   87.6464   50.3395   47.2767 H   0  0  0  0  0  0  0  0  0  0  0  0
   88.0755   46.3795   50.4227 H   0  0  0  0  0  0  0  0  0  0  0  0
   88.6708   50.1273   52.2238 H   0  0  0  0  0  0  0  0  0  0  0  0
   87.3265   53.4060   51.1101 H   0  0  0  0  0  0  0  0  0  0  0  0
  2  1  2  0
  3  1  1  0
  4  1  1  0
  6  5  1  0
  6  1  1  0
  7  5  1  0
  8  7  1  0
  9  7  1  0
  9 10  1  0
 11  9  1  0
 11 12  1  0
 13 11  1  0
 13  8  1  0
 13 14  1  0
 15 14  1  0
 16 15  2  0
 17 15  1  0
 18 17  1  0
 19 18  2  0
 20 18  1  0
 21 20  2  0
 21 14  1  0
 22 21  1  0
 23 22  2  0
 24 22  1  0
  3 25  1  0
  4 26  1  0
  5 27  1  0
  5 28  1  0
  7 29  1  6
  9 30  1  1
 10 31  1  0
 11 32  1  6
 12 33  1  0
 13 34  1  6
 17 35  1  0
 20 36  1  0
 24 37  1  0
M  END
