
     RDKit          3D

 14 13  0  0  0  0  0  0  0  0999 V2000
   47.0474   -9.9184   18.1623 P   0  0  0  0  0  0  0  0  0  0  0  0
   45.4664  -10.3645   17.7796 O   0  0  0  0  0  0  0  0  0  0  0  0
   47.2679   -8.4637   17.8307 O   0  0  0  0  0  0  0  0  0  0  0  0
   48.1313  -10.8908   17.3238 O   0  0  0  0  0  0  0  0  0  0  0  0
   47.2365  -10.1605   19.8116 O   0  0  0  0  0  0  0  0  0  0  0  0
   44.2365  -11.8739   19.0972 C   0  0  0  0  0  0  0  0  0  0  0  0
   44.2164  -11.0867   20.0771 O   0  0  0  0  0  0  0  0  0  0  0  0
   45.2897  -11.7336   18.0514 C   0  0  0  0  0  0  0  0  0  0  0  0
   43.2848  -12.8766   18.9960 O   0  0  0  0  0  0  0  0  0  0  0  0
   48.3590  -10.3829   16.5044 H   0  0  0  0  0  0  0  0  0  0  0  0
   48.0602   -9.6639   20.0482 H   0  0  0  0  0  0  0  0  0  0  0  0
   46.2214  -12.1953   18.4488 H   0  0  0  0  0  0  0  0  0  0  0  0
   44.9543  -12.2729   17.1379 H   0  0  0  0  0  0  0  0  0  0  0  0
   42.3015  -12.6763   19.1350 H   0  0  0  0  0  0  0  0  0  0  0  0
  2  1  1  0
  3  1  2  0
  4  1  1  0
  5  1  1  0
  7  6  2  0
  8  6  1  0
  8  2  1  0
  9  6  1  0
  4 10  1  0
  5 11  1  0
  8 12  1  0
  8 13  1  0
  9 14  1  0
M  END
