
     RDKit          3D

 19 20  0  0  0  0  0  0  0  0999 V2000
    1.5622   13.4900   24.8254 Cl  0  0  0  0  0  0  0  0  0  0  0  0
    6.6856   10.5186   23.8475 C   0  0  0  0  0  0  0  0  0  0  0  0
    5.4647   11.3393   24.1344 C   0  0  0  0  0  0  0  0  0  0  0  0
    4.2498   10.7688   23.9281 N   0  0  0  0  0  0  0  0  0  0  0  0
    3.1159   11.4303   24.1454 N   0  0  0  0  0  0  0  0  0  0  0  0
    3.1117   12.7109   24.5885 C   0  0  0  0  0  0  0  0  0  0  0  0
    4.3271   13.3717   24.8286 C   0  0  0  0  0  0  0  0  0  0  0  0
    4.3700   14.7010   25.2918 C   0  0  0  0  0  0  0  0  0  0  0  0
    5.5931   15.3267   25.5276 C   0  0  0  0  0  0  0  0  0  0  0  0
    6.7838   14.6426   25.2981 C   0  0  0  0  0  0  0  0  0  0  0  0
    6.7602   13.3259   24.8352 C   0  0  0  0  0  0  0  0  0  0  0  0
    5.5337   12.6739   24.5953 C   0  0  0  0  0  0  0  0  0  0  0  0
    6.4151    9.5928   23.2962 H   0  0  0  0  0  0  0  0  0  0  0  0
    7.1768   10.2257   24.7992 H   0  0  0  0  0  0  0  0  0  0  0  0
    7.3950   11.1011   23.2229 H   0  0  0  0  0  0  0  0  0  0  0  0
    3.4654   15.2637   25.4799 H   0  0  0  0  0  0  0  0  0  0  0  0
    5.6179   16.3475   25.8869 H   0  0  0  0  0  0  0  0  0  0  0  0
    7.7311   15.1336   25.4805 H   0  0  0  0  0  0  0  0  0  0  0  0
    7.7056   12.8266   24.6699 H   0  0  0  0  0  0  0  0  0  0  0  0
  3  2  1  0
  4  3  2  0
  5  4  1  0
  6  5  2  0
  6  1  1  0
  7  6  1  0
  8  7  1  0
  9  8  2  0
 10  9  1  0
 11 10  2  0
 12  7  2  0
 12  3  1  0
 12 11  1  0
  2 13  1  0
  2 14  1  0
  2 15  1  0
  8 16  1  0
  9 17  1  0
 10 18  1  0
 11 19  1  0
M  END
