
     RDKit          3D

 25 24  0  0  0  0  0  0  0  0999 V2000
  -19.0570  -20.2012  -27.4527 P   0  0  0  0  0  0  0  0  0  0  0  0
  -18.0695  -24.2299  -29.2225 O   0  0  0  0  0  0  0  0  0  0  0  0
  -17.9112  -23.1508  -28.3384 C   0  0  0  0  0  0  0  0  0  0  0  0
  -17.2488  -23.6200  -27.0701 C   0  0  0  0  0  0  0  0  0  0  0  0
  -17.8032  -24.4772  -26.3981 O   0  0  0  0  0  0  0  0  0  0  0  0
  -15.9343  -23.0325  -26.5880 C   0  0  1  0  0  0  0  0  0  0  0  0
  -15.9782  -21.5109  -26.2547 C   0  0  1  0  0  0  0  0  0  0  0  0
  -17.3217  -20.9919  -25.7054 C   0  0  0  0  0  0  0  0  0  0  0  0
  -18.3628  -21.4350  -26.5385 O   0  0  0  0  0  0  0  0  0  0  0  0
  -20.1538  -20.8499  -28.2615 O   0  0  0  0  0  0  0  0  0  0  0  0
  -19.7036  -19.0405  -26.4286 O   0  0  0  0  0  0  0  0  0  0  0  0
  -17.9158  -19.5017  -28.4692 O   0  0  0  0  0  0  0  0  0  0  0  0
  -15.4329  -23.7689  -25.4984 O   0  0  0  0  0  0  0  0  0  0  0  0
  -14.9773  -21.2251  -25.3098 O   0  0  0  0  0  0  0  0  0  0  0  0
  -19.0376  -24.2872  -29.4366 H   0  0  0  0  0  0  0  0  0  0  0  0
  -17.2826  -22.3771  -28.8270 H   0  0  0  0  0  0  0  0  0  0  0  0
  -18.8971  -22.6909  -28.1089 H   0  0  0  0  0  0  0  0  0  0  0  0
  -15.2095  -23.1614  -27.4208 H   0  0  0  0  0  0  0  0  0  0  0  0
  -15.7727  -20.9455  -27.1945 H   0  0  0  0  0  0  0  0  0  0  0  0
  -17.4925  -21.3936  -24.6844 H   0  0  0  0  0  0  0  0  0  0  0  0
  -17.2512  -19.8831  -25.6139 H   0  0  0  0  0  0  0  0  0  0  0  0
  -19.1279  -19.0583  -25.6231 H   0  0  0  0  0  0  0  0  0  0  0  0
  -17.6114  -20.2402  -29.0546 H   0  0  0  0  0  0  0  0  0  0  0  0
  -16.1629  -24.3496  -25.1598 H   0  0  0  0  0  0  0  0  0  0  0  0
  -14.6761  -20.2944  -25.4809 H   0  0  0  0  0  0  0  0  0  0  0  0
  3  2  1  0
  4  3  1  0
  5  4  2  0
  6  4  1  0
  7  6  1  0
  8  7  1  0
  9  8  1  0
  9  1  1  0
 10  1  2  0
 11  1  1  0
 12  1  1  0
  6 13  1  0
  7 14  1  0
  2 15  1  0
  3 16  1  0
  3 17  1  0
  6 18  1  6
  7 19  1  6
  8 20  1  0
  8 21  1  0
 11 22  1  0
 12 23  1  0
 13 24  1  0
 14 25  1  0
M  END
