
     RDKit          3D

 22 22  0  0  0  0  0  0  0  0999 V2000
   -5.9127    2.7890   15.7765 C   0  0  0  0  0  0  0  0  0  0  0  0
   -5.9437    1.3372   18.1657 N   0  0  0  0  0  0  0  0  0  0  0  0
   -6.5426    0.2674   15.8825 O   0  0  0  0  0  0  0  0  0  0  0  0
   -6.6996    1.5341   16.6579 S   0  0  0  0  0  0  0  0  0  0  0  0
   -5.3720    4.5803   14.2921 C   0  0  0  0  0  0  0  0  0  0  0  0
   -4.2729    3.9603   14.8268 N   0  0  0  0  0  0  0  0  0  0  0  0
   -8.1477    1.8441   16.8544 O   0  0  0  0  0  0  0  0  0  0  0  0
   -6.7789    3.8725   14.8503 S   0  0  0  0  0  0  0  0  0  0  0  0
   -6.3574    6.3140   12.7622 C   0  0  0  0  0  0  0  0  0  0  0  0
   -4.5816    2.9511   15.6453 N   0  0  0  0  0  0  0  0  0  0  0  0
   -6.0148    7.2175   11.9556 O   0  0  0  0  0  0  0  0  0  0  0  0
   -7.8197    6.0672   12.9393 C   0  0  0  0  0  0  0  0  0  0  0  0
   -5.3229    5.5732   13.4448 N   0  0  0  0  0  0  0  0  0  0  0  0
   -2.8737    4.2829   14.5448 C   0  0  0  0  0  0  0  0  0  0  0  0
   -5.0420    0.8377   17.9951 H   0  0  0  0  0  0  0  0  0  0  0  0
   -6.5438    0.6935   18.7287 H   0  0  0  0  0  0  0  0  0  0  0  0
   -8.2469    6.7768   13.6800 H   0  0  0  0  0  0  0  0  0  0  0  0
   -8.3498    6.2202   11.9766 H   0  0  0  0  0  0  0  0  0  0  0  0
   -7.9880    5.0384   13.3193 H   0  0  0  0  0  0  0  0  0  0  0  0
   -2.5369    3.7391   13.6372 H   0  0  0  0  0  0  0  0  0  0  0  0
   -2.2426    3.9832   15.4075 H   0  0  0  0  0  0  0  0  0  0  0  0
   -2.7540    5.3735   14.3696 H   0  0  0  0  0  0  0  0  0  0  0  0
  4  2  1  0
  4  3  2  0
  4  1  1  0
  6  5  1  0
  7  4  2  0
  8  5  1  0
  8  1  1  0
 10  6  1  0
 10  1  2  0
 11  9  2  0
 12  9  1  0
 13  9  1  0
 13  5  2  3
 14  6  1  0
  2 15  1  0
  2 16  1  0
 12 17  1  0
 12 18  1  0
 12 19  1  0
 14 20  1  0
 14 21  1  0
 14 22  1  0
M  END
