
     RDKit          3D

 22 22  0  0  0  0  0  0  0  0999 V2000
   -6.5957    1.9942   16.1517 C   0  0  0  0  0  0  0  0  0  0  0  0
   -6.8006   -0.7149   16.8117 N   0  0  0  0  0  0  0  0  0  0  0  0
   -8.8761    0.7522   16.3055 O   0  0  0  0  0  0  0  0  0  0  0  0
   -7.5394    0.8059   16.9693 S   0  0  0  0  0  0  0  0  0  0  0  0
   -5.8270    3.7808   14.7655 C   0  0  0  0  0  0  0  0  0  0  0  0
   -4.8182    2.9905   15.2512 N   0  0  0  0  0  0  0  0  0  0  0  0
   -7.6936    1.1462   18.4157 O   0  0  0  0  0  0  0  0  0  0  0  0
   -7.3134    3.2349   15.2988 S   0  0  0  0  0  0  0  0  0  0  0  0
   -6.5786    5.7157   13.3483 C   0  0  0  0  0  0  0  0  0  0  0  0
   -5.2554    1.9854   16.0146 N   0  0  0  0  0  0  0  0  0  0  0  0
   -6.1231    6.7502   12.7944 O   0  0  0  0  0  0  0  0  0  0  0  0
   -8.0559    5.5018   13.2989 C   0  0  0  0  0  0  0  0  0  0  0  0
   -5.6494    4.8058   13.9755 N   0  0  0  0  0  0  0  0  0  0  0  0
   -3.3896    3.1401   14.9719 C   0  0  0  0  0  0  0  0  0  0  0  0
   -6.9633   -1.0360   15.8309 H   0  0  0  0  0  0  0  0  0  0  0  0
   -7.3183   -1.3742   17.4352 H   0  0  0  0  0  0  0  0  0  0  0  0
   -8.5157    6.1431   12.5166 H   0  0  0  0  0  0  0  0  0  0  0  0
   -8.2781    4.4445   13.0462 H   0  0  0  0  0  0  0  0  0  0  0  0
   -8.5120    5.7755   14.2727 H   0  0  0  0  0  0  0  0  0  0  0  0
   -3.0563    4.1624   15.2492 H   0  0  0  0  0  0  0  0  0  0  0  0
   -3.2035    2.9743   13.8902 H   0  0  0  0  0  0  0  0  0  0  0  0
   -2.7997    2.4036   15.5584 H   0  0  0  0  0  0  0  0  0  0  0  0
  4  2  1  0
  4  3  2  0
  4  1  1  0
  6  5  1  0
  7  4  2  0
  8  5  1  0
  8  1  1  0
 10  6  1  0
 10  1  2  0
 11  9  2  0
 12  9  1  0
 13  9  1  0
 13  5  2  3
 14  6  1  0
  2 15  1  0
  2 16  1  0
 12 17  1  0
 12 18  1  0
 12 19  1  0
 14 20  1  0
 14 21  1  0
 14 22  1  0
M  END
