
     RDKit          3D

 68 72  0  0  0  0  0  0  0  0999 V2000
  -56.3562   14.8058   64.3154 P   0  0  2  0  0  0  0  0  0  0  0  0
  -58.6488   14.8271   59.7746 P   0  0  0  0  0  0  0  0  0  0  0  0
  -54.2305   11.6964   66.3698 C   0  0  1  0  0  0  0  0  0  0  0  0
  -54.3722   16.1891   60.3051 C   0  0  1  0  0  0  0  0  0  0  0  0
  -51.6299    7.2646   66.6726 N   0  0  0  0  0  0  0  0  0  0  0  0
  -52.9194   16.2885   60.5293 N   0  0  0  0  0  0  0  0  0  0  0  0
  -57.2629   15.3201   65.4058 O   0  0  0  0  0  0  0  0  0  0  0  0
  -59.2847   15.1753   58.4497 O   0  0  0  0  0  0  0  0  0  0  0  0
  -52.2167    7.8287   65.5695 C   0  0  0  0  0  0  0  0  0  0  0  0
  -53.4760   12.3316   65.1958 C   0  0  2  0  0  0  0  0  0  0  0  0
  -54.9512   14.8653   60.7949 C   0  0  2  0  0  0  0  0  0  0  0  0
  -52.0331   16.3859   59.4827 C   0  0  0  0  0  0  0  0  0  0  0  0
  -57.2329   13.8510   63.2485 O   0  0  0  0  0  0  0  0  0  0  0  0
  -52.6005   13.3855   65.5549 O   0  0  0  0  0  0  0  0  0  0  0  0
  -54.7344   13.7789   59.9196 O   0  0  0  0  0  0  0  0  0  0  0  0
  -52.4419   16.3652   58.2882 O   0  0  0  0  0  0  0  0  0  0  0  0
  -59.3270   15.7531   60.9979 O   0  0  0  0  0  0  0  0  0  0  0  0
  -54.6761   12.7841   64.3862 C   0  0  2  0  0  0  0  0  0  0  0  0
  -56.4110   15.2335   60.9402 C   0  0  2  0  0  0  0  0  0  0  0  0
  -52.8453    9.0382   65.6573 N   0  0  0  0  0  0  0  0  0  0  0  0
  -50.6979   16.5294   59.7243 N   0  0  0  0  0  0  0  0  0  0  0  0
  -55.1603   13.9087   65.0944 O   0  0  0  0  0  0  0  0  0  0  0  0
  -56.9990   15.1480   59.6625 O   0  0  0  0  0  0  0  0  0  0  0  0
  -58.8524   13.2007   60.1317 O   0  0  0  0  0  0  0  0  0  0  0  0
  -52.8613    9.6516   66.8672 C   0  0  0  0  0  0  0  0  0  0  0  0
  -55.6113   11.5642   64.5765 C   0  0  2  0  0  0  0  0  0  0  0  0
  -56.3256   16.7204   61.3480 C   0  0  2  0  0  0  0  0  0  0  0  0
  -50.2190   16.5965   60.9958 C   0  0  0  0  0  0  0  0  0  0  0  0
  -55.2862   10.9493   65.8101 O   0  0  0  0  0  0  0  0  0  0  0  0
  -55.0363   17.2060   61.0213 O   0  0  0  0  0  0  0  0  0  0  0  0
  -48.9857   16.7489   61.2051 O   0  0  0  0  0  0  0  0  0  0  0  0
  -52.3077    9.1103   67.9711 C   0  0  0  0  0  0  0  0  0  0  0  0
  -55.5328   10.5487   63.4144 C   0  0  0  0  0  0  0  0  0  0  0  0
  -56.5742   16.9010   62.8475 C   0  0  0  0  0  0  0  0  0  0  0  0
  -51.1015   16.5113   62.0677 C   0  0  0  0  0  0  0  0  0  0  0  0
  -54.2207   10.0979   63.2167 O   0  0  0  0  0  0  0  0  0  0  0  0
  -55.6267   16.1094   63.5269 O   0  0  0  0  0  0  0  0  0  0  0  0
  -51.6589    7.8917   67.8847 C   0  0  0  0  0  0  0  0  0  0  0  0
  -52.4552   16.3550   61.8127 C   0  0  0  0  0  0  0  0  0  0  0  0
  -51.0795    7.2839   69.0297 N   0  0  0  0  0  0  0  0  0  0  0  0
  -52.5024    9.9003   69.0466 N   0  0  0  0  0  0  0  0  0  0  0  0
  -53.1922   10.9464   68.5267 C   0  0  0  0  0  0  0  0  0  0  0  0
  -53.4075   10.8291   67.1907 N   0  0  0  0  0  0  0  0  0  0  0  0
  -54.6736   12.4814   67.0276 H   0  0  0  0  0  0  0  0  0  0  0  0
  -54.6197   16.3336   59.2286 H   0  0  0  0  0  0  0  0  0  0  0  0
  -52.1823    7.3113   64.6208 H   0  0  0  0  0  0  0  0  0  0  0  0
  -52.8902   11.5712   64.6393 H   0  0  0  0  0  0  0  0  0  0  0  0
  -54.5372   14.5974   61.7854 H   0  0  0  0  0  0  0  0  0  0  0  0
  -56.6410   13.7357   62.4626 H   0  0  0  0  0  0  0  0  0  0  0  0
  -52.9905   13.8811   66.3207 H   0  0  0  0  0  0  0  0  0  0  0  0
  -54.8614   14.0877   58.9853 H   0  0  0  0  0  0  0  0  0  0  0  0
  -59.4365   16.6565   60.6072 H   0  0  0  0  0  0  0  0  0  0  0  0
  -54.4082   13.0167   63.3351 H   0  0  0  0  0  0  0  0  0  0  0  0
  -56.8914   14.5704   61.7005 H   0  0  0  0  0  0  0  0  0  0  0  0
  -50.0331   16.6027   58.9202 H   0  0  0  0  0  0  0  0  0  0  0  0
  -59.7826   13.1298   60.4642 H   0  0  0  0  0  0  0  0  0  0  0  0
  -56.6654   11.8793   64.6422 H   0  0  0  0  0  0  0  0  0  0  0  0
  -57.0783   17.3253   60.7968 H   0  0  0  0  0  0  0  0  0  0  0  0
  -56.1925    9.6832   63.6475 H   0  0  0  0  0  0  0  0  0  0  0  0
  -55.9063   11.0334   62.4842 H   0  0  0  0  0  0  0  0  0  0  0  0
  -57.6336   16.6268   63.0601 H   0  0  0  0  0  0  0  0  0  0  0  0
  -56.4262   17.9668   63.1243 H   0  0  0  0  0  0  0  0  0  0  0  0
  -50.7422   16.5691   63.0880 H   0  0  0  0  0  0  0  0  0  0  0  0
  -54.2606    9.4558   62.4612 H   0  0  0  0  0  0  0  0  0  0  0  0
  -53.1337   16.3057   62.6544 H   0  0  0  0  0  0  0  0  0  0  0  0
  -51.1104    7.7503   69.9636 H   0  0  0  0  0  0  0  0  0  0  0  0
  -50.6093    6.3553   68.9482 H   0  0  0  0  0  0  0  0  0  0  0  0
  -53.5461   11.7774   69.1234 H   0  0  0  0  0  0  0  0  0  0  0  0
  4  6  1  0
  7  1  2  0
  8  2  2  0
  9  5  2  0
 10  3  1  0
 11  4  1  0
 12  6  1  0
  1 13  1  6
 10 14  1  0
 11 15  1  0
 16 12  2  0
 17  2  1  0
 18 10  1  0
 19 11  1  0
 20  9  1  0
 21 12  1  0
 22  1  1  0
 18 22  1  0
 23  2  1  0
 19 23  1  0
 24  2  1  0
 25 20  2  0
 26 18  1  0
 27 19  1  0
 28 21  1  0
 29 26  1  0
 29  3  1  0
 30 27  1  0
 30  4  1  0
 31 28  2  0
 32 25  1  0
 26 33  1  0
 27 34  1  0
 35 28  1  0
 36 33  1  0
 37  1  1  0
 37 34  1  0
 38 32  2  0
 38  5  1  0
 39  6  1  0
 39 35  2  0
 40 38  1  0
 41 32  1  0
 42 41  2  0
 43 25  1  0
 43 42  1  0
  3 43  1  0
  3 44  1  1
  4 45  1  6
  9 46  1  0
 10 47  1  6
 11 48  1  1
 13 49  1  0
 14 50  1  0
 15 51  1  0
 17 52  1  0
 18 53  1  6
 19 54  1  1
 21 55  1  0
 24 56  1  0
 26 57  1  1
 27 58  1  6
 33 59  1  0
 33 60  1  0
 34 61  1  0
 34 62  1  0
 35 63  1  0
 36 64  1  0
 39 65  1  0
 40 66  1  0
 40 67  1  0
 42 68  1  0
M  END
