
     RDKit          3D

 68 72  0  0  0  0  0  0  0  0999 V2000
  -13.0798   16.6552   28.7367 P   0  0  2  0  0  0  0  0  0  0  0  0
   -9.3875   16.0139   33.1275 P   0  0  0  0  0  0  0  0  0  0  0  0
  -15.3865   13.7778   26.9620 C   0  0  1  0  0  0  0  0  0  0  0  0
  -13.4689   16.6324   33.7524 C   0  0  1  0  0  0  0  0  0  0  0  0
  -17.6810    9.1640   26.6484 N   0  0  0  0  0  0  0  0  0  0  0  0
  -14.9059   16.8786   33.9885 N   0  0  0  0  0  0  0  0  0  0  0  0
  -12.8961   17.8895   27.8889 O   0  0  0  0  0  0  0  0  0  0  0  0
   -8.6113   15.8829   34.4149 O   0  0  0  0  0  0  0  0  0  0  0  0
  -17.1548    9.7744   27.7569 C   0  0  0  0  0  0  0  0  0  0  0  0
  -16.1569   14.3417   28.1646 C   0  0  2  0  0  0  0  0  0  0  0  0
  -13.2092   15.3727   32.9346 C   0  0  2  0  0  0  0  0  0  0  0  0
  -15.4648   16.6496   35.2194 C   0  0  0  0  0  0  0  0  0  0  0  0
  -11.8190   15.5769   28.4724 O   0  0  0  0  0  0  0  0  0  0  0  0
  -17.0862   15.3600   27.8420 O   0  0  0  0  0  0  0  0  0  0  0  0
  -13.2758   14.1763   33.6825 O   0  0  0  0  0  0  0  0  0  0  0  0
  -14.7677   16.1845   36.1621 O   0  0  0  0  0  0  0  0  0  0  0  0
   -9.6092   17.6349   32.7578 O   0  0  0  0  0  0  0  0  0  0  0  0
  -14.9734   14.8388   28.9745 C   0  0  2  0  0  0  0  0  0  0  0  0
  -11.8227   15.6557   32.3867 C   0  0  2  0  0  0  0  0  0  0  0  0
  -16.6086   11.0239   27.6743 N   0  0  0  0  0  0  0  0  0  0  0  0
  -16.7763   16.9433   35.4454 N   0  0  0  0  0  0  0  0  0  0  0  0
  -14.5588   15.9969   28.2750 O   0  0  0  0  0  0  0  0  0  0  0  0
  -10.8829   15.2614   33.3604 O   0  0  0  0  0  0  0  0  0  0  0  0
   -8.5603   15.2774   31.8658 O   0  0  0  0  0  0  0  0  0  0  0  0
  -16.6134   11.6317   26.4624 C   0  0  0  0  0  0  0  0  0  0  0  0
  -13.9853   13.6723   28.7508 C   0  0  2  0  0  0  0  0  0  0  0  0
  -11.8304   17.1984   32.2799 C   0  0  2  0  0  0  0  0  0  0  0  0
  -17.5595   17.4762   34.4707 C   0  0  0  0  0  0  0  0  0  0  0  0
  -14.2473   13.1216   27.4728 O   0  0  0  0  0  0  0  0  0  0  0  0
  -12.9164   17.7061   33.0314 O   0  0  0  0  0  0  0  0  0  0  0  0
  -18.7601   17.7705   34.7185 O   0  0  0  0  0  0  0  0  0  0  0  0
  -17.1170   11.0485   25.3522 C   0  0  0  0  0  0  0  0  0  0  0  0
  -14.0461   12.5849   29.8557 C   0  0  0  0  0  0  0  0  0  0  0  0
  -11.9809   17.6481   30.8281 C   0  0  0  0  0  0  0  0  0  0  0  0
  -17.0116   17.7334   33.2154 C   0  0  0  0  0  0  0  0  0  0  0  0
  -15.3547   12.1412   30.1028 O   0  0  0  0  0  0  0  0  0  0  0  0
  -13.1890   17.1017   30.3585 O   0  0  0  0  0  0  0  0  0  0  0  0
  -17.6648    9.7770   25.4302 C   0  0  0  0  0  0  0  0  0  0  0  0
  -15.6750   17.4160   32.9923 C   0  0  0  0  0  0  0  0  0  0  0  0
  -18.2294    9.1364   24.2945 N   0  0  0  0  0  0  0  0  0  0  0  0
  -16.9832   11.8590   24.2834 N   0  0  0  0  0  0  0  0  0  0  0  0
  -16.3770   12.9528   24.8106 C   0  0  0  0  0  0  0  0  0  0  0  0
  -16.1555   12.8506   26.1470 N   0  0  0  0  0  0  0  0  0  0  0  0
  -15.0320   14.6062   26.3044 H   0  0  0  0  0  0  0  0  0  0  0  0
  -12.9082   16.5728   34.7130 H   0  0  0  0  0  0  0  0  0  0  0  0
  -17.1743    9.2623   28.7090 H   0  0  0  0  0  0  0  0  0  0  0  0
  -16.7036   13.5407   28.7004 H   0  0  0  0  0  0  0  0  0  0  0  0
  -13.9303   15.3012   32.0978 H   0  0  0  0  0  0  0  0  0  0  0  0
  -11.9325   14.8771   29.1642 H   0  0  0  0  0  0  0  0  0  0  0  0
  -16.7340   15.8939   27.0837 H   0  0  0  0  0  0  0  0  0  0  0  0
  -14.1716   13.7679   33.5589 H   0  0  0  0  0  0  0  0  0  0  0  0
   -8.7330   17.9440   32.4148 H   0  0  0  0  0  0  0  0  0  0  0  0
  -15.2380   15.0402   30.0325 H   0  0  0  0  0  0  0  0  0  0  0  0
  -11.6895   15.1245   31.4131 H   0  0  0  0  0  0  0  0  0  0  0  0
  -17.1859   16.7661   36.3914 H   0  0  0  0  0  0  0  0  0  0  0  0
   -9.1490   14.5352   31.5768 H   0  0  0  0  0  0  0  0  0  0  0  0
  -12.9447   14.0366   28.7373 H   0  0  0  0  0  0  0  0  0  0  0  0
  -10.8899   17.6301   32.6857 H   0  0  0  0  0  0  0  0  0  0  0  0
  -13.4101   11.7244   29.5496 H   0  0  0  0  0  0  0  0  0  0  0  0
  -13.6232   13.0115   30.7931 H   0  0  0  0  0  0  0  0  0  0  0  0
  -11.0795   17.3160   30.2628 H   0  0  0  0  0  0  0  0  0  0  0  0
  -12.0368   18.7570   30.7826 H   0  0  0  0  0  0  0  0  0  0  0  0
  -17.6103   18.1701   32.4256 H   0  0  0  0  0  0  0  0  0  0  0  0
  -15.5829   11.5260   29.3585 H   0  0  0  0  0  0  0  0  0  0  0  0
  -15.2515   17.6241   32.0181 H   0  0  0  0  0  0  0  0  0  0  0  0
  -18.2340    9.6021   23.3598 H   0  0  0  0  0  0  0  0  0  0  0  0
  -18.6481    8.1840   24.3835 H   0  0  0  0  0  0  0  0  0  0  0  0
  -16.0852   13.8095   24.2166 H   0  0  0  0  0  0  0  0  0  0  0  0
  4  6  1  0
  7  1  2  0
  8  2  2  0
  9  5  2  0
 10  3  1  0
 11  4  1  0
 12  6  1  0
  1 13  1  1
 10 14  1  0
 11 15  1  0
 16 12  2  0
 17  2  1  0
 18 10  1  0
 19 11  1  0
 20  9  1  0
 21 12  1  0
 18 22  1  0
 22  1  1  0
 19 23  1  0
 23  2  1  0
 24  2  1  0
 25 20  2  0
 26 18  1  0
 27 19  1  0
 28 21  1  0
 29 26  1  0
 29  3  1  0
 30 27  1  0
 30  4  1  0
 31 28  2  0
 32 25  1  0
 26 33  1  0
 27 34  1  0
 35 28  1  0
 36 33  1  0
 37 34  1  0
 37  1  1  0
 38  5  1  0
 38 32  2  0
 39 35  2  0
 39  6  1  0
 40 38  1  0
 41 32  1  0
 42 41  2  0
 43 42  1  0
 43 25  1  0
  3 43  1  0
  3 44  1  6
  4 45  1  1
  9 46  1  0
 10 47  1  1
 11 48  1  6
 13 49  1  0
 14 50  1  0
 15 51  1  0
 17 52  1  0
 18 53  1  1
 19 54  1  6
 21 55  1  0
 24 56  1  0
 26 57  1  6
 27 58  1  1
 33 59  1  0
 33 60  1  0
 34 61  1  0
 34 62  1  0
 35 63  1  0
 36 64  1  0
 39 65  1  0
 40 66  1  0
 40 67  1  0
 42 68  1  0
M  END
