
     RDKit          3D

 36 38  0  0  0  0  0  0  0  0999 V2000
    5.9957   17.2299   42.2300 P   0  0  0  0  0  0  0  0  0  0  0  0
    6.9878   17.6066   41.1531 O   0  0  0  0  0  0  0  0  0  0  0  0
    6.8438   16.9032   43.6374 O   0  0  0  0  0  0  0  0  0  0  0  0
    4.9222   18.4907   42.4975 O   0  0  0  0  0  0  0  0  0  0  0  0
    5.7895   15.0441   40.8588 C   0  0  0  0  0  0  0  0  0  0  0  0
    5.1885   15.7819   41.8853 O   0  0  0  0  0  0  0  0  0  0  0  0
    5.1508   13.6421   40.9250 C   0  0  1  0  0  0  0  0  0  0  0  0
    3.9982   13.6847   41.7426 O   0  0  0  0  0  0  0  0  0  0  0  0
    4.7919   13.0667   39.5539 C   0  0  1  0  0  0  0  0  0  0  0  0
    5.2763   11.7477   39.4694 O   0  0  0  0  0  0  0  0  0  0  0  0
    3.2864   13.0736   39.5753 C   0  0  1  0  0  0  0  0  0  0  0  0
    2.7378   12.0082   38.8377 O   0  0  0  0  0  0  0  0  0  0  0  0
    2.9718   13.0092   41.0634 C   0  0  2  0  0  0  0  0  0  0  0  0
   -1.9034   12.1895   42.4790 N   0  0  0  0  0  0  0  0  0  0  0  0
   -0.9093   11.2756   42.2415 C   0  0  0  0  0  0  0  0  0  0  0  0
    0.3345   11.6889   41.8548 N   0  0  0  0  0  0  0  0  0  0  0  0
    0.5512   13.0205   41.7210 C   0  0  0  0  0  0  0  0  0  0  0  0
   -0.4061   13.9438   41.9469 C   0  0  0  0  0  0  0  0  0  0  0  0
   -1.6746   13.5305   42.3369 C   0  0  0  0  0  0  0  0  0  0  0  0
   -2.5925   14.3595   42.5547 O   0  0  0  0  0  0  0  0  0  0  0  0
    0.0766   15.1871   41.7360 N   0  0  0  0  0  0  0  0  0  0  0  0
    1.3717   14.9550   41.3856 C   0  0  0  0  0  0  0  0  0  0  0  0
    1.6856   13.6326   41.3678 N   0  0  0  0  0  0  0  0  0  0  0  0
    7.2380   17.7722   43.9032 H   0  0  0  0  0  0  0  0  0  0  0  0
    4.5494   18.6975   41.6036 H   0  0  0  0  0  0  0  0  0  0  0  0
    6.8874   14.9753   41.0326 H   0  0  0  0  0  0  0  0  0  0  0  0
    5.5986   15.5171   39.8702 H   0  0  0  0  0  0  0  0  0  0  0  0
    5.8806   12.9510   41.4088 H   0  0  0  0  0  0  0  0  0  0  0  0
    5.1756   13.6825   38.7061 H   0  0  0  0  0  0  0  0  0  0  0  0
    4.5662   11.2070   39.0342 H   0  0  0  0  0  0  0  0  0  0  0  0
    2.9234   14.0353   39.1485 H   0  0  0  0  0  0  0  0  0  0  0  0
    2.2104   11.4275   39.4456 H   0  0  0  0  0  0  0  0  0  0  0  0
    2.9710   11.9547   41.4220 H   0  0  0  0  0  0  0  0  0  0  0  0
   -2.8475   11.8506   42.7718 H   0  0  0  0  0  0  0  0  0  0  0  0
   -1.1084   10.2183   42.3573 H   0  0  0  0  0  0  0  0  0  0  0  0
    2.0743   15.7431   41.1468 H   0  0  0  0  0  0  0  0  0  0  0  0
  2  1  2  0
  3  1  1  0
  4  1  1  0
  6  5  1  0
  6  1  1  0
  7  5  1  0
  8  7  1  0
  9  7  1  0
  9 10  1  0
 11  9  1  0
 11 12  1  0
 13 11  1  0
 13  8  1  0
 15 14  1  0
 16 15  2  0
 17 16  1  0
 18 17  2  0
 19 18  1  0
 19 14  1  0
 20 19  2  0
 21 18  1  0
 22 21  2  0
 23 22  1  0
 23 17  1  0
 13 23  1  0
  3 24  1  0
  4 25  1  0
  5 26  1  0
  5 27  1  0
  7 28  1  1
  9 29  1  6
 10 30  1  0
 11 31  1  6
 12 32  1  0
 13 33  1  1
 14 34  1  0
 15 35  1  0
 22 36  1  0
M  END
