
     RDKit          3D

 25 25  0  0  0  0  0  0  0  0999 V2000
   -0.6796   10.0783   11.1092 C   0  0  0  0  0  0  0  0  0  0  0  0
   -0.3420    9.6731   12.2975 N   0  0  0  0  0  0  0  0  0  0  0  0
    0.3620   10.8041   10.2738 C   0  0  2  0  0  0  0  0  0  0  0  0
    0.8060   11.9616   10.9335 O   0  0  0  0  0  0  0  0  0  0  0  0
   -0.1664   11.2262    8.8941 C   0  0  1  0  0  0  0  0  0  0  0  0
    0.9232   11.4668    8.0391 O   0  0  0  0  0  0  0  0  0  0  0  0
   -1.0975   10.1584    8.2865 C   0  0  1  0  0  0  0  0  0  0  0  0
   -0.4001    8.9505    8.0957 O   0  0  0  0  0  0  0  0  0  0  0  0
   -2.3525    9.9974    9.1873 C   0  0  2  0  0  0  0  0  0  0  0  0
   -1.9836    9.7731   10.5816 N   0  0  0  0  0  0  0  0  0  0  0  0
   -3.3263    8.8970    8.7279 C   0  0  0  0  0  0  0  0  0  0  0  0
   -4.6179    9.4108    8.5378 O   0  0  0  0  0  0  0  0  0  0  0  0
   -1.1308    8.8584   13.0882 O   0  0  0  0  0  0  0  0  0  0  0  0
    1.2188   10.1055   10.1201 H   0  0  0  0  0  0  0  0  0  0  0  0
    1.0082   12.6352   10.2324 H   0  0  0  0  0  0  0  0  0  0  0  0
   -0.7624   12.1650    9.0019 H   0  0  0  0  0  0  0  0  0  0  0  0
    1.2956   12.3536    8.2859 H   0  0  0  0  0  0  0  0  0  0  0  0
   -1.4324   10.5185    7.2890 H   0  0  0  0  0  0  0  0  0  0  0  0
   -0.2276    8.8261    7.1278 H   0  0  0  0  0  0  0  0  0  0  0  0
   -2.9106   10.9594    9.1379 H   0  0  0  0  0  0  0  0  0  0  0  0
   -2.7773    9.6344   11.2455 H   0  0  0  0  0  0  0  0  0  0  0  0
   -2.9596    8.4717    7.7666 H   0  0  0  0  0  0  0  0  0  0  0  0
   -3.3485    8.0776    9.4809 H   0  0  0  0  0  0  0  0  0  0  0  0
   -5.1866    8.9913    9.2346 H   0  0  0  0  0  0  0  0  0  0  0  0
   -1.7261    9.2095   13.8268 H   0  0  0  0  0  0  0  0  0  0  0  0
  2  1  2  3
  3  1  1  0
  3  4  1  0
  5  3  1  0
  5  6  1  0
  7  5  1  0
  7  8  1  0
  9  7  1  0
 10  9  1  0
 10  1  1  0
  9 11  1  0
 12 11  1  0
 13  2  1  0
  3 14  1  6
  4 15  1  0
  5 16  1  1
  6 17  1  0
  7 18  1  6
  8 19  1  0
  9 20  1  1
 10 21  1  0
 11 22  1  0
 11 23  1  0
 12 24  1  0
 13 25  1  0
M  END
