
     RDKit          3D

 25 25  0  0  0  0  0  0  0  0999 V2000
  -18.3510  -29.7979   -3.8933 C   0  0  0  0  0  0  0  0  0  0  0  0
  -18.6165  -30.2833   -2.7220 N   0  0  0  0  0  0  0  0  0  0  0  0
  -17.7709  -30.7199   -4.9546 C   0  0  2  0  0  0  0  0  0  0  0  0
  -16.5499  -31.2540   -4.5128 O   0  0  0  0  0  0  0  0  0  0  0  0
  -17.5239  -29.9965   -6.2956 C   0  0  1  0  0  0  0  0  0  0  0  0
  -17.4121  -30.9322   -7.3370 O   0  0  0  0  0  0  0  0  0  0  0  0
  -18.6352  -28.9826   -6.6152 C   0  0  1  0  0  0  0  0  0  0  0  0
  -19.8850  -29.6256   -6.6389 O   0  0  0  0  0  0  0  0  0  0  0  0
  -18.6057  -27.8806   -5.5380 C   0  0  2  0  0  0  0  0  0  0  0  0
  -18.7641  -28.4570   -4.2072 N   0  0  0  0  0  0  0  0  0  0  0  0
  -19.6576  -26.7842   -5.7682 C   0  0  0  0  0  0  0  0  0  0  0  0
  -20.1916  -26.8585   -7.0655 O   0  0  0  0  0  0  0  0  0  0  0  0
  -19.4031  -29.5797   -1.8386 O   0  0  0  0  0  0  0  0  0  0  0  0
  -18.5057  -31.5404   -5.1336 H   0  0  0  0  0  0  0  0  0  0  0  0
  -16.7671  -31.9988   -3.8930 H   0  0  0  0  0  0  0  0  0  0  0  0
  -16.5583  -29.4405   -6.2120 H   0  0  0  0  0  0  0  0  0  0  0  0
  -17.9358  -31.7315   -7.0664 H   0  0  0  0  0  0  0  0  0  0  0  0
  -18.4277  -28.5103   -7.6047 H   0  0  0  0  0  0  0  0  0  0  0  0
  -19.9856  -30.0904   -5.7676 H   0  0  0  0  0  0  0  0  0  0  0  0
  -17.6092  -27.3860   -5.5834 H   0  0  0  0  0  0  0  0  0  0  0  0
  -18.9688  -27.7989   -3.4210 H   0  0  0  0  0  0  0  0  0  0  0  0
  -20.4673  -26.8833   -5.0071 H   0  0  0  0  0  0  0  0  0  0  0  0
  -19.2033  -25.7811   -5.6214 H   0  0  0  0  0  0  0  0  0  0  0  0
  -19.6762  -26.2283   -7.6335 H   0  0  0  0  0  0  0  0  0  0  0  0
  -19.3271  -29.7530   -0.8445 H   0  0  0  0  0  0  0  0  0  0  0  0
  2  1  2  3
  3  1  1  0
  3  4  1  0
  5  3  1  0
  5  6  1  0
  7  5  1  0
  7  8  1  0
  9  7  1  0
 10  9  1  0
 10  1  1  0
  9 11  1  0
 12 11  1  0
 13  2  1  0
  3 14  1  6
  4 15  1  0
  5 16  1  1
  6 17  1  0
  7 18  1  6
  8 19  1  0
  9 20  1  1
 10 21  1  0
 11 22  1  0
 11 23  1  0
 12 24  1  0
 13 25  1  0
M  END
