
     RDKit          3D

 35 36  0  0  0  0  0  0  0  0999 V2000
   -4.6774    0.5673   25.4158 P   0  0  0  0  0  0  0  0  0  0  0  0
   -5.7712    1.2050   26.2324 O   0  0  0  0  0  0  0  0  0  0  0  0
   -3.2394    0.6147   26.2887 O   0  0  0  0  0  0  0  0  0  0  0  0
   -5.1081   -1.0215   25.0801 O   0  0  0  0  0  0  0  0  0  0  0  0
   -4.1936    0.7651   22.8960 C   0  0  0  0  0  0  0  0  0  0  0  0
   -4.5192    1.5163   24.0291 O   0  0  0  0  0  0  0  0  0  0  0  0
   -2.8549    0.0792   23.2213 C   0  0  1  0  0  0  0  0  0  0  0  0
   -2.5468   -0.8577   22.2171 O   0  0  0  0  0  0  0  0  0  0  0  0
   -1.6898    1.0755   23.3589 C   0  0  1  0  0  0  0  0  0  0  0  0
   -0.8171    0.6409   24.3777 O   0  0  0  0  0  0  0  0  0  0  0  0
   -1.0372    0.9832   21.9981 C   0  0  1  0  0  0  0  0  0  0  0  0
    0.3348    1.3118   22.0057 O   0  0  0  0  0  0  0  0  0  0  0  0
   -1.3332   -0.4733   21.6212 C   0  0  2  0  0  0  0  0  0  0  0  0
   -1.4140   -0.7113   20.1687 N   0  0  0  0  0  0  0  0  0  0  0  0
    0.0785   -2.5093   20.3234 O   0  0  0  0  0  0  0  0  0  0  0  0
   -2.3948   -0.0401   19.3557 C   0  0  0  0  0  0  0  0  0  0  0  0
   -3.1804    0.8055   19.8505 O   0  0  0  0  0  0  0  0  0  0  0  0
   -2.4992   -0.3361   17.9738 N   0  0  0  0  0  0  0  0  0  0  0  0
   -1.6920   -1.3304   17.3628 C   0  0  0  0  0  0  0  0  0  0  0  0
   -1.8578   -1.5816   16.1438 O   0  0  0  0  0  0  0  0  0  0  0  0
   -0.6362   -2.0571   18.1252 C   0  0  0  0  0  0  0  0  0  0  0  0
   -0.6456   -1.7842   19.5907 C   0  0  0  0  0  0  0  0  0  0  0  0
   -3.4628    1.1088   27.1175 H   0  0  0  0  0  0  0  0  0  0  0  0
   -4.6895   -1.2193   24.2045 H   0  0  0  0  0  0  0  0  0  0  0  0
   -4.9712   -0.0074   22.7016 H   0  0  0  0  0  0  0  0  0  0  0  0
   -4.0804    1.4318   22.0177 H   0  0  0  0  0  0  0  0  0  0  0  0
   -2.9836   -0.4764   24.1777 H   0  0  0  0  0  0  0  0  0  0  0  0
   -2.0431    2.1141   23.5645 H   0  0  0  0  0  0  0  0  0  0  0  0
   -0.7701   -0.3485   24.3109 H   0  0  0  0  0  0  0  0  0  0  0  0
   -1.5466    1.6965   21.3215 H   0  0  0  0  0  0  0  0  0  0  0  0
    0.8320    0.5966   22.4807 H   0  0  0  0  0  0  0  0  0  0  0  0
   -0.5444   -1.1055   22.0837 H   0  0  0  0  0  0  0  0  0  0  0  0
   -3.2108    0.1674   17.3969 H   0  0  0  0  0  0  0  0  0  0  0  0
    0.3556   -1.7661   17.7190 H   0  0  0  0  0  0  0  0  0  0  0  0
   -0.7690   -3.1485   17.9623 H   0  0  0  0  0  0  0  0  0  0  0  0
  2  1  2  0
  3  1  1  0
  4  1  1  0
  6  5  1  0
  6  1  1  0
  7  5  1  0
  8  7  1  0
  9  7  1  0
  9 10  1  0
 11  9  1  0
 11 12  1  0
 13 11  1  0
 13  8  1  0
 13 14  1  0
 16 14  1  0
 17 16  2  0
 18 16  1  0
 19 18  1  0
 20 19  2  0
 21 19  1  0
 22 21  1  0
 22 15  2  0
 22 14  1  0
  3 23  1  0
  4 24  1  0
  5 25  1  0
  5 26  1  0
  7 27  1  1
  9 28  1  1
 10 29  1  0
 11 30  1  6
 12 31  1  0
 13 32  1  1
 18 33  1  0
 21 34  1  0
 21 35  1  0
M  END
