
     RDKit          3D

 38 40  0  0  0  0  0  0  0  0999 V2000
    8.8422    0.1665   10.5954 P   0  0  0  0  0  0  0  0  0  0  0  0
    8.0991   -0.4987   11.7254 O   0  0  0  0  0  0  0  0  0  0  0  0
    7.7839    0.5631    9.3571 O   0  0  0  0  0  0  0  0  0  0  0  0
   10.0242   -0.8708   10.0172 O   0  0  0  0  0  0  0  0  0  0  0  0
   12.8780    2.1496   11.2891 C   0  0  0  0  0  0  0  0  0  0  0  0
   13.4425    1.9628   10.0139 O   0  0  0  0  0  0  0  0  0  0  0  0
   11.5237    2.8768   11.2051 C   0  0  1  0  0  0  0  0  0  0  0  0
   11.7028    4.1784   10.6971 O   0  0  0  0  0  0  0  0  0  0  0  0
   10.4952    2.1291   10.3425 C   0  0  1  0  0  0  0  0  0  0  0  0
    9.5375    1.5747   11.2201 O   0  0  0  0  0  0  0  0  0  0  0  0
    9.9033    3.2194    9.4566 C   0  0  1  0  0  0  0  0  0  0  0  0
    8.5001    3.2709    9.5377 O   0  0  0  0  0  0  0  0  0  0  0  0
   10.5373    4.5109    9.9842 C   0  0  2  0  0  0  0  0  0  0  0  0
   12.5678    5.1128    5.2491 N   0  0  0  0  0  0  0  0  0  0  0  0
   12.6037    4.0009    6.0558 C   0  0  0  0  0  0  0  0  0  0  0  0
   13.1865    2.7998    5.5726 N   0  0  0  0  0  0  0  0  0  0  0  0
   12.0665    4.0330    7.3117 N   0  0  0  0  0  0  0  0  0  0  0  0
   11.5125    5.1974    7.7318 C   0  0  0  0  0  0  0  0  0  0  0  0
   11.4770    6.3129    6.9599 C   0  0  0  0  0  0  0  0  0  0  0  0
   12.0038    6.2818    5.6719 C   0  0  0  0  0  0  0  0  0  0  0  0
   11.9505    7.2808    4.9053 O   0  0  0  0  0  0  0  0  0  0  0  0
   10.8404    7.3120    7.6041 N   0  0  0  0  0  0  0  0  0  0  0  0
   10.4903    6.7370    8.7864 C   0  0  0  0  0  0  0  0  0  0  0  0
   10.8708    5.4364    8.8905 N   0  0  0  0  0  0  0  0  0  0  0  0
    8.0465    1.4770    9.0797 H   0  0  0  0  0  0  0  0  0  0  0  0
    9.7573   -1.0627    9.0829 H   0  0  0  0  0  0  0  0  0  0  0  0
   12.7554    1.1792   11.8252 H   0  0  0  0  0  0  0  0  0  0  0  0
   13.5771    2.7690   11.8902 H   0  0  0  0  0  0  0  0  0  0  0  0
   13.7250    1.0135    9.9539 H   0  0  0  0  0  0  0  0  0  0  0  0
   11.1420    2.9780   12.2475 H   0  0  0  0  0  0  0  0  0  0  0  0
   11.0039    1.3696    9.7061 H   0  0  0  0  0  0  0  0  0  0  0  0
   10.2029    3.0142    8.4040 H   0  0  0  0  0  0  0  0  0  0  0  0
    8.2005    3.8942    8.8254 H   0  0  0  0  0  0  0  0  0  0  0  0
    9.8348    5.0098   10.6911 H   0  0  0  0  0  0  0  0  0  0  0  0
   12.9722    5.0629    4.2864 H   0  0  0  0  0  0  0  0  0  0  0  0
   13.2121    1.9478    6.1759 H   0  0  0  0  0  0  0  0  0  0  0  0
   13.5966    2.7514    4.6136 H   0  0  0  0  0  0  0  0  0  0  0  0
    9.9300    7.2591    9.5513 H   0  0  0  0  0  0  0  0  0  0  0  0
  2  1  2  0
  3  1  1  0
  4  1  1  0
  6  5  1  0
  7  5  1  0
  8  7  1  0
  9  7  1  0
  9 10  1  0
 10  1  1  0
 11  9  1  0
 11 12  1  0
 13 11  1  0
 13  8  1  0
 15 14  1  0
 16 15  1  0
 17 15  2  0
 18 17  1  0
 19 18  2  0
 20 14  1  0
 20 19  1  0
 21 20  2  0
 22 19  1  0
 23 22  2  0
 13 24  1  0
 24 23  1  0
 24 18  1  0
  3 25  1  0
  4 26  1  0
  5 27  1  0
  5 28  1  0
  6 29  1  0
  7 30  1  1
  9 31  1  6
 11 32  1  6
 12 33  1  0
 13 34  1  1
 14 35  1  0
 16 36  1  0
 16 37  1  0
 23 38  1  0
M  END
