
     RDKit          3D

 55 58  0  0  0  0  0  0  0  0999 V2000
   13.2954   -0.6380   49.9725 Cl  0  0  0  0  0  0  0  0  0  0  0  0
   10.1613   -1.1340   54.3731 Cl  0  0  0  0  0  0  0  0  0  0  0  0
   14.3282   -1.1193   52.5009 C   0  0  0  0  0  0  0  0  0  0  0  0
   16.8356   -4.7783   52.0915 N   0  0  0  0  0  0  0  0  0  0  0  0
   15.6613   -6.7395   52.5227 O   0  0  0  0  0  0  0  0  0  0  0  0
   14.1819   -1.3062   53.8943 C   0  0  0  0  0  0  0  0  0  0  0  0
   18.0845   -1.7199   50.5920 N   0  0  0  0  0  0  0  0  0  0  0  0
   15.3397   -1.4764   54.6681 O   0  0  0  0  0  0  0  0  0  0  0  0
   12.8906   -1.3093   54.4670 C   0  0  0  0  0  0  0  0  0  0  0  0
   16.2925   -0.2882   51.2251 N   0  0  0  0  0  0  0  0  0  0  0  0
   11.7639   -1.1069   53.6644 C   0  0  0  0  0  0  0  0  0  0  0  0
   18.1452    0.6049   49.9568 N   0  0  0  0  0  0  0  0  0  0  0  0
   11.9117   -0.8814   52.2946 C   0  0  0  0  0  0  0  0  0  0  0  0
   17.9715   -6.8418   52.8429 N   0  0  0  0  0  0  0  0  0  0  0  0
   13.1832   -0.8827   51.7099 C   0  0  0  0  0  0  0  0  0  0  0  0
   17.0951   -2.5774   56.2074 N   0  0  0  0  0  0  0  0  0  0  0  0
   16.2627   -2.5667   51.8598 C   0  0  0  0  0  0  0  0  0  0  0  0
   16.0455   -2.3281   56.9734 N   0  0  0  0  0  0  0  0  0  0  0  0
   15.7837   -3.8356   52.4475 C   0  0  0  0  0  0  0  0  0  0  0  0
   17.9079   -4.1574   51.3032 C   0  0  0  0  0  0  0  0  0  0  0  0
   17.4589   -2.7456   51.2187 C   0  0  0  0  0  0  0  0  0  0  0  0
   17.4992   -0.4842   50.6029 C   0  0  0  0  0  0  0  0  0  0  0  0
   15.6543   -1.3120   51.8629 C   0  0  0  0  0  0  0  0  0  0  0  0
   16.7758   -6.1471   52.4907 C   0  0  0  0  0  0  0  0  0  0  0  0
   16.6594   -1.1955   54.2154 C   0  0  0  0  0  0  0  0  0  0  0  0
   17.6676   -1.6052   55.2829 C   0  0  0  0  0  0  0  0  0  0  0  0
   17.5605   -3.8209   56.4396 C   0  0  0  0  0  0  0  0  0  0  0  0
   16.7731   -4.3953   57.4098 C   0  0  0  0  0  0  0  0  0  0  0  0
   15.8309   -3.4297   57.7156 C   0  0  0  0  0  0  0  0  0  0  0  0
   17.9670   -8.2384   53.2583 C   0  0  0  0  0  0  0  0  0  0  0  0
   17.5185   -9.1292   52.1011 C   0  0  0  0  0  0  0  0  0  0  0  0
   18.6742   -9.4035   51.1464 C   0  0  0  0  0  0  0  0  0  0  0  0
   16.5001   -8.5126   51.4034 F   0  0  0  0  0  0  0  0  0  0  0  0
   17.0477  -10.3279   52.5998 F   0  0  0  0  0  0  0  0  0  0  0  0
   12.7521   -1.4711   55.5271 H   0  0  0  0  0  0  0  0  0  0  0  0
   19.0629    0.4672   49.4782 H   0  0  0  0  0  0  0  0  0  0  0  0
   17.7078    1.5530   49.9550 H   0  0  0  0  0  0  0  0  0  0  0  0
   11.0352   -0.7184   51.6798 H   0  0  0  0  0  0  0  0  0  0  0  0
   18.8808   -6.3295   52.8733 H   0  0  0  0  0  0  0  0  0  0  0  0
   15.7007   -3.7554   53.5515 H   0  0  0  0  0  0  0  0  0  0  0  0
   14.8175   -4.1382   51.9899 H   0  0  0  0  0  0  0  0  0  0  0  0
   17.9586   -4.6109   50.2908 H   0  0  0  0  0  0  0  0  0  0  0  0
   18.8806   -4.2310   51.8300 H   0  0  0  0  0  0  0  0  0  0  0  0
   16.7587   -0.1085   54.0050 H   0  0  0  0  0  0  0  0  0  0  0  0
   16.8731   -1.7712   53.2889 H   0  0  0  0  0  0  0  0  0  0  0  0
   17.9890   -0.7046   55.8491 H   0  0  0  0  0  0  0  0  0  0  0  0
   18.5681   -2.0331   54.7895 H   0  0  0  0  0  0  0  0  0  0  0  0
   18.4151   -4.2702   55.9503 H   0  0  0  0  0  0  0  0  0  0  0  0
   16.8789   -5.3775   57.8491 H   0  0  0  0  0  0  0  0  0  0  0  0
   15.0474   -3.5226   58.4506 H   0  0  0  0  0  0  0  0  0  0  0  0
   17.2618   -8.3535   54.1103 H   0  0  0  0  0  0  0  0  0  0  0  0
   18.9724   -8.5495   53.6174 H   0  0  0  0  0  0  0  0  0  0  0  0
   18.8418   -8.5188   50.4964 H   0  0  0  0  0  0  0  0  0  0  0  0
   19.6068   -9.6062   51.7154 H   0  0  0  0  0  0  0  0  0  0  0  0
   18.4441  -10.2781   50.5009 H   0  0  0  0  0  0  0  0  0  0  0  0
  6  3  1  0
  8  6  1  0
  9  6  2  0
 11  2  1  0
 11  9  1  0
 13 11  2  0
 15 13  1  0
 15  3  2  0
 15  1  1  0
 18 16  1  0
 19 17  1  0
 19  4  1  0
 20  4  1  0
 21 17  2  0
 21 20  1  0
 21  7  1  0
 22 10  1  0
 22 12  1  0
 22  7  2  0
 23 17  1  0
 23 10  2  0
 23  3  1  0
 24  5  2  0
 24  4  1  0
 24 14  1  0
 25  8  1  0
 26 25  1  0
 26 16  1  0
 27 16  1  0
 28 27  2  0
 29 28  1  0
 29 18  2  0
 30 14  1  0
 31 30  1  0
 31 32  1  0
 33 31  1  0
 34 31  1  0
  9 35  1  0
 12 36  1  0
 12 37  1  0
 13 38  1  0
 14 39  1  0
 19 40  1  0
 19 41  1  0
 20 42  1  0
 20 43  1  0
 25 44  1  0
 25 45  1  0
 26 46  1  0
 26 47  1  0
 27 48  1  0
 28 49  1  0
 29 50  1  0
 30 51  1  0
 30 52  1  0
 32 53  1  0
 32 54  1  0
 32 55  1  0
M  END
