
     RDKit          3D

 24 23  0  0  0  0  0  0  0  0999 V2000
   22.2101  -12.2741   39.8939 N   0  0  0  0  0  0  0  0  0  0  0  0
   22.2503  -12.6853   41.3033 C   0  0  2  0  0  0  0  0  0  0  0  0
   23.2167  -13.8304   41.4989 C   0  0  0  0  0  0  0  0  0  0  0  0
   23.2233  -14.8052   40.6996 O   0  0  0  0  0  0  0  0  0  0  0  0
   20.8362  -13.0215   41.8323 C   0  0  0  0  0  0  0  0  0  0  0  0
   20.3208  -14.3809   41.3431 C   0  0  0  0  0  0  0  0  0  0  0  0
   19.0382  -14.7844   42.0606 C   0  0  0  0  0  0  0  0  0  0  0  0
   18.2240  -15.7336   41.1627 C   0  0  0  0  0  0  0  0  0  0  0  0
   24.1247  -13.8026   42.5436 O   0  0  0  0  0  0  0  0  0  0  0  0
   17.2245  -16.4689   41.9253 N   0  0  0  0  0  0  0  0  0  0  0  0
   16.5236  -17.4924   41.3325 O   0  0  0  0  0  0  0  0  0  0  0  0
   17.1872  -16.3466   43.1679 O   0  0  0  0  0  0  0  0  0  0  0  0
   21.9131  -13.0748   39.2918 H   0  0  0  0  0  0  0  0  0  0  0  0
   21.4998  -11.5144   39.7821 H   0  0  0  0  0  0  0  0  0  0  0  0
   22.6367  -11.8258   41.8945 H   0  0  0  0  0  0  0  0  0  0  0  0
   20.8705  -13.0366   42.9442 H   0  0  0  0  0  0  0  0  0  0  0  0
   20.1266  -12.2178   41.5365 H   0  0  0  0  0  0  0  0  0  0  0  0
   21.0824  -15.1683   41.5307 H   0  0  0  0  0  0  0  0  0  0  0  0
   20.1211  -14.3345   40.2514 H   0  0  0  0  0  0  0  0  0  0  0  0
   18.4711  -13.8616   42.3064 H   0  0  0  0  0  0  0  0  0  0  0  0
   19.2787  -15.2986   43.0171 H   0  0  0  0  0  0  0  0  0  0  0  0
   18.9189  -16.4454   40.6641 H   0  0  0  0  0  0  0  0  0  0  0  0
   17.6906  -15.1791   40.3592 H   0  0  0  0  0  0  0  0  0  0  0  0
   23.8132  -13.8604   43.5058 H   0  0  0  0  0  0  0  0  0  0  0  0
  2  1  1  0
  3  2  1  0
  4  3  2  0
  5  2  1  0
  6  5  1  0
  7  6  1  0
  8  7  1  0
  9  3  1  0
 10  8  1  0
 11 10  1  0
 12 10  2  0
  1 13  1  0
  1 14  1  0
  2 15  1  1
  5 16  1  0
  5 17  1  0
  6 18  1  0
  6 19  1  0
  7 20  1  0
  7 21  1  0
  8 22  1  0
  8 23  1  0
  9 24  1  0
M  CHG  2  10   1  11  -1
M  END
