
     RDKit          3D

 24 23  0  0  0  0  0  0  0  0999 V2000
   22.9365  -17.5929    5.6778 N   0  0  0  0  0  0  0  0  0  0  0  0
   22.9165  -17.2850    7.1142 C   0  0  2  0  0  0  0  0  0  0  0  0
   21.6608  -16.5300    7.4827 C   0  0  0  0  0  0  0  0  0  0  0  0
   21.2560  -15.5738    6.7672 O   0  0  0  0  0  0  0  0  0  0  0  0
   24.1895  -16.5240    7.5450 C   0  0  0  0  0  0  0  0  0  0  0  0
   24.1736  -15.0579    7.1009 C   0  0  0  0  0  0  0  0  0  0  0  0
   24.7271  -14.1371    8.1786 C   0  0  0  0  0  0  0  0  0  0  0  0
   24.9032  -12.7234    7.5952 C   0  0  0  0  0  0  0  0  0  0  0  0
   20.9245  -16.9076    8.5929 O   0  0  0  0  0  0  0  0  0  0  0  0
   25.8926  -12.7005    6.5290 N   0  0  0  0  0  0  0  0  0  0  0  0
   26.3343  -11.5005    6.0254 O   0  0  0  0  0  0  0  0  0  0  0  0
   26.5196  -13.7448    6.2537 O   0  0  0  0  0  0  0  0  0  0  0  0
   23.6165  -18.3683    5.5034 H   0  0  0  0  0  0  0  0  0  0  0  0
   23.2512  -16.7629    5.1271 H   0  0  0  0  0  0  0  0  0  0  0  0
   22.8957  -18.2499    7.6670 H   0  0  0  0  0  0  0  0  0  0  0  0
   25.0875  -17.0345    7.1330 H   0  0  0  0  0  0  0  0  0  0  0  0
   24.2672  -16.5618    8.6542 H   0  0  0  0  0  0  0  0  0  0  0  0
   24.7886  -14.9340    6.1848 H   0  0  0  0  0  0  0  0  0  0  0  0
   23.1326  -14.7392    6.8760 H   0  0  0  0  0  0  0  0  0  0  0  0
   24.0236  -14.0946    9.0393 H   0  0  0  0  0  0  0  0  0  0  0  0
   25.6857  -14.5574    8.5512 H   0  0  0  0  0  0  0  0  0  0  0  0
   23.9528  -12.3198    7.1804 H   0  0  0  0  0  0  0  0  0  0  0  0
   25.2154  -12.0341    8.4111 H   0  0  0  0  0  0  0  0  0  0  0  0
   20.2452  -16.2794    9.0054 H   0  0  0  0  0  0  0  0  0  0  0  0
  2  1  1  0
  3  2  1  0
  4  3  2  0
  5  2  1  0
  6  5  1  0
  7  6  1  0
  8  7  1  0
  9  3  1  0
 10  8  1  0
 11 10  1  0
 12 10  2  0
  1 13  1  0
  1 14  1  0
  2 15  1  1
  5 16  1  0
  5 17  1  0
  6 18  1  0
  6 19  1  0
  7 20  1  0
  7 21  1  0
  8 22  1  0
  8 23  1  0
  9 24  1  0
M  CHG  2  10   1  11  -1
M  END
