
     RDKit          3D

 55 57  0  0  0  0  0  0  0  0999 V2000
    3.4653   41.9487  117.0220 N   0  0  0  0  0  0  0  0  0  0  0  0
    3.7878   40.5848  116.5962 C   0  0  2  0  0  0  0  0  0  0  0  0
   -0.1470   47.3628  118.9909 C   0  0  0  0  0  0  0  0  0  0  0  0
   -0.6645   48.6415  119.1856 C   0  0  0  0  0  0  0  0  0  0  0  0
   -0.2042   46.7816  117.7118 C   0  0  0  0  0  0  0  0  0  0  0  0
   -0.6824   47.5162  116.6310 C   0  0  0  0  0  0  0  0  0  0  0  0
   -1.1548   48.8240  116.8157 C   0  0  0  0  0  0  0  0  0  0  0  0
   -1.2150   49.3404  118.1211 C   0  0  0  0  0  0  0  0  0  0  0  0
   -1.6083   49.5753  115.6269 C   0  0  0  0  0  0  0  0  0  0  0  0
   -1.6788   50.9168  115.5010 C   0  0  0  0  0  0  0  0  0  0  0  0
   -2.0134   51.5739  114.2433 C   0  0  0  0  0  0  0  0  0  0  0  0
   -1.7586   53.4370  115.6118 C   0  0  0  0  0  0  0  0  0  0  0  0
    1.1017   45.3912  119.9888 C   0  0  0  0  0  0  0  0  0  0  0  0
    2.2947   45.4832  119.0636 C   0  0  0  0  0  0  0  0  0  0  0  0
    3.1697   46.5781  119.0917 C   0  0  0  0  0  0  0  0  0  0  0  0
    2.5740   44.4206  118.2088 C   0  0  0  0  0  0  0  0  0  0  0  0
    4.3094   46.5949  118.2806 C   0  0  0  0  0  0  0  0  0  0  0  0
    4.6115   45.5017  117.4647 C   0  0  0  0  0  0  0  0  0  0  0  0
    3.7489   44.3971  117.4331 C   0  0  0  0  0  0  0  0  0  0  0  0
    4.0637   43.1973  116.6286 C   0  0  0  0  0  0  0  0  0  0  0  0
    5.2111   40.4168  116.2389 C   0  0  0  0  0  0  0  0  0  0  0  0
    5.5874   40.7300  115.0826 O   0  0  0  0  0  0  0  0  0  0  0  0
   -2.0691   52.9852  114.3114 N   0  0  0  0  0  0  0  0  0  0  0  0
    0.4182   46.6728  120.1070 N   0  0  0  0  0  0  0  0  0  0  0  0
    2.8636   40.0592  115.4967 C   0  0  0  0  0  0  0  0  0  0  0  0
    4.8452   43.2749  115.6410 O   0  0  0  0  0  0  0  0  0  0  0  0
   -2.2203   50.9598  113.1677 O   0  0  0  0  0  0  0  0  0  0  0  0
   -1.3337   52.1512  116.7690 S   0  0  0  0  0  0  0  0  0  0  0  0
   -1.7660   55.0199  116.0152 S   0  0  0  0  0  0  0  0  0  0  0  0
    1.9798   38.9018  115.9862 C   0  0  0  0  0  0  0  0  0  0  0  0
    2.2846   37.5842  115.3424 C   0  0  0  0  0  0  0  0  0  0  0  0
    1.4189   36.6751  115.3981 O   0  0  0  0  0  0  0  0  0  0  0  0
    3.4202   37.4023  114.5624 O   0  0  0  0  0  0  0  0  0  0  0  0
    6.1317   40.0882  117.2190 O   0  0  0  0  0  0  0  0  0  0  0  0
    2.9609   41.9360  117.9349 H   0  0  0  0  0  0  0  0  0  0  0  0
    3.6229   39.9060  117.4664 H   0  0  0  0  0  0  0  0  0  0  0  0
   -0.6885   49.0779  120.1767 H   0  0  0  0  0  0  0  0  0  0  0  0
    0.1297   45.7711  117.5296 H   0  0  0  0  0  0  0  0  0  0  0  0
   -0.6729   47.0663  115.6453 H   0  0  0  0  0  0  0  0  0  0  0  0
   -1.7444   50.2421  118.3637 H   0  0  0  0  0  0  0  0  0  0  0  0
   -1.8179   48.9833  114.7428 H   0  0  0  0  0  0  0  0  0  0  0  0
    0.3736   44.6252  119.6437 H   0  0  0  0  0  0  0  0  0  0  0  0
    1.4620   45.0734  120.9908 H   0  0  0  0  0  0  0  0  0  0  0  0
    2.9793   47.4154  119.7514 H   0  0  0  0  0  0  0  0  0  0  0  0
    1.8379   43.6325  118.1364 H   0  0  0  0  0  0  0  0  0  0  0  0
    4.9780   47.4456  118.3097 H   0  0  0  0  0  0  0  0  0  0  0  0
    5.5180   45.5143  116.8725 H   0  0  0  0  0  0  0  0  0  0  0  0
   -2.3097   53.6068  113.5071 H   0  0  0  0  0  0  0  0  0  0  0  0
    0.3878   47.1199  121.0518 H   0  0  0  0  0  0  0  0  0  0  0  0
    2.2107   40.8922  115.1525 H   0  0  0  0  0  0  0  0  0  0  0  0
    3.4820   39.7452  114.6281 H   0  0  0  0  0  0  0  0  0  0  0  0
    2.0296   38.7862  117.0909 H   0  0  0  0  0  0  0  0  0  0  0  0
    0.9201   39.1421  115.7527 H   0  0  0  0  0  0  0  0  0  0  0  0
    4.0604   38.1605  114.3611 H   0  0  0  0  0  0  0  0  0  0  0  0
    5.9581   40.3144  118.1909 H   0  0  0  0  0  0  0  0  0  0  0  0
  2  1  1  0
  4  3  2  0
  5  3  1  0
  6  5  2  0
  7  6  1  0
  8  7  2  0
  8  4  1  0
  9  7  1  0
 10  9  2  3
 11 10  1  0
 14 13  1  0
 15 14  2  0
 16 14  1  0
 17 15  1  0
 18 17  2  0
 19 18  1  0
 19 16  2  0
 20  1  1  0
 20 19  1  0
 21  2  1  0
 22 21  2  0
 23 11  1  0
 23 12  1  0
 24 13  1  0
 24  3  1  0
  2 25  1  0
 26 20  2  0
 27 11  2  0
 28 12  1  0
 28 10  1  0
 29 12  2  0
 30 25  1  0
 31 30  1  0
 32 31  2  0
 33 31  1  0
 34 21  1  0
  1 35  1  0
  2 36  1  1
  4 37  1  0
  5 38  1  0
  6 39  1  0
  8 40  1  0
  9 41  1  0
 13 42  1  0
 13 43  1  0
 15 44  1  0
 16 45  1  0
 17 46  1  0
 18 47  1  0
 23 48  1  0
 24 49  1  0
 25 50  1  0
 25 51  1  0
 30 52  1  0
 30 53  1  0
 33 54  1  0
 34 55  1  0
M  END
