
     RDKit          3D

 36 38  0  0  0  0  0  0  0  0999 V2000
  -30.6529   -4.4675    0.7489 P   0  0  0  0  0  0  0  0  0  0  0  0
  -31.9727   -3.8129    1.0724 O   0  0  0  0  0  0  0  0  0  0  0  0
  -30.0599   -5.2361    2.1151 O   0  0  0  0  0  0  0  0  0  0  0  0
  -30.8816   -5.6232   -0.4512 O   0  0  0  0  0  0  0  0  0  0  0  0
  -28.8535   -3.7252   -0.8768 C   0  0  0  0  0  0  0  0  0  0  0  0
  -29.5500   -3.2737    0.2597 O   0  0  0  0  0  0  0  0  0  0  0  0
  -27.9224   -2.6252   -1.4116 C   0  0  1  0  0  0  0  0  0  0  0  0
  -28.4685   -1.3361   -1.2432 O   0  0  0  0  0  0  0  0  0  0  0  0
  -26.5810   -2.6526   -0.7019 C   0  0  1  0  0  0  0  0  0  0  0  0
  -25.6983   -3.5909   -1.2637 O   0  0  0  0  0  0  0  0  0  0  0  0
  -26.0898   -1.2294   -0.7828 C   0  0  1  0  0  0  0  0  0  0  0  0
  -25.1004   -1.0492   -1.7695 O   0  0  0  0  0  0  0  0  0  0  0  0
  -27.3762   -0.4414   -1.0910 C   0  0  2  0  0  0  0  0  0  0  0  0
  -25.3180    2.6924    2.4047 N   0  0  0  0  0  0  0  0  0  0  0  0
  -24.7075    2.0311    1.3637 C   0  0  0  0  0  0  0  0  0  0  0  0
  -25.4272    1.2408    0.5184 N   0  0  0  0  0  0  0  0  0  0  0  0
  -26.7590    1.1506    0.7410 C   0  0  0  0  0  0  0  0  0  0  0  0
  -27.3899    1.7771    1.7662 C   0  0  0  0  0  0  0  0  0  0  0  0
  -26.6619    2.5814    2.6343 C   0  0  0  0  0  0  0  0  0  0  0  0
  -27.2056    3.1920    3.5951 O   0  0  0  0  0  0  0  0  0  0  0  0
  -28.7090    1.4945    1.7538 N   0  0  0  0  0  0  0  0  0  0  0  0
  -28.8273    0.6724    0.6759 C   0  0  0  0  0  0  0  0  0  0  0  0
  -27.6505    0.4640    0.0246 N   0  0  0  0  0  0  0  0  0  0  0  0
  -29.8525   -4.5027    2.7478 H   0  0  0  0  0  0  0  0  0  0  0  0
  -31.8360   -5.8779   -0.3795 H   0  0  0  0  0  0  0  0  0  0  0  0
  -28.2722   -4.6497   -0.6524 H   0  0  0  0  0  0  0  0  0  0  0  0
  -29.5738   -3.9443   -1.6982 H   0  0  0  0  0  0  0  0  0  0  0  0
  -27.7753   -2.7922   -2.5036 H   0  0  0  0  0  0  0  0  0  0  0  0
  -26.7303   -2.9085    0.3723 H   0  0  0  0  0  0  0  0  0  0  0  0
  -24.8217   -3.1516   -1.4192 H   0  0  0  0  0  0  0  0  0  0  0  0
  -25.6703   -0.9343    0.2104 H   0  0  0  0  0  0  0  0  0  0  0  0
  -25.2375   -1.7607   -2.4486 H   0  0  0  0  0  0  0  0  0  0  0  0
  -27.2618    0.1487   -2.0274 H   0  0  0  0  0  0  0  0  0  0  0  0
  -24.7353    3.2891    3.0342 H   0  0  0  0  0  0  0  0  0  0  0  0
  -23.6407    2.1339    1.2142 H   0  0  0  0  0  0  0  0  0  0  0  0
  -29.7661    0.2225    0.3803 H   0  0  0  0  0  0  0  0  0  0  0  0
  2  1  2  0
  3  1  1  0
  4  1  1  0
  6  1  1  0
  6  5  1  0
  7  5  1  0
  8  7  1  0
  9  7  1  0
  9 10  1  0
 11  9  1  0
 11 12  1  0
 13  8  1  0
 13 11  1  0
 15 14  1  0
 16 15  2  0
 17 16  1  0
 18 17  2  0
 19 18  1  0
 19 14  1  0
 20 19  2  0
 21 18  1  0
 22 21  2  0
 23 22  1  0
 13 23  1  0
 23 17  1  0
  3 24  1  0
  4 25  1  0
  5 26  1  0
  5 27  1  0
  7 28  1  6
  9 29  1  1
 10 30  1  0
 11 31  1  1
 12 32  1  0
 13 33  1  6
 14 34  1  0
 15 35  1  0
 22 36  1  0
M  END
