
     RDKit          3D

 36 38  0  0  0  0  0  0  0  0999 V2000
   -2.8433  -12.3650  -22.9707 P   0  0  0  0  0  0  0  0  0  0  0  0
   -1.9977  -13.5317  -23.4101 O   0  0  0  0  0  0  0  0  0  0  0  0
   -1.8753  -11.1935  -22.2679 O   0  0  0  0  0  0  0  0  0  0  0  0
   -3.6375  -11.6697  -24.2804 O   0  0  0  0  0  0  0  0  0  0  0  0
   -4.7902  -11.9895  -21.3580 C   0  0  0  0  0  0  0  0  0  0  0  0
   -3.9615  -12.9927  -21.8765 O   0  0  0  0  0  0  0  0  0  0  0  0
   -5.5675  -12.6064  -20.1893 C   0  0  1  0  0  0  0  0  0  0  0  0
   -5.0086  -13.8477  -19.8036 O   0  0  0  0  0  0  0  0  0  0  0  0
   -5.6173  -11.6586  -18.9947 C   0  0  1  0  0  0  0  0  0  0  0  0
   -6.9472  -11.3359  -18.6693 O   0  0  0  0  0  0  0  0  0  0  0  0
   -4.9026  -12.3840  -17.8770 C   0  0  1  0  0  0  0  0  0  0  0  0
   -5.7307  -12.4947  -16.7426 O   0  0  0  0  0  0  0  0  0  0  0  0
   -4.5225  -13.7482  -18.4815 C   0  0  2  0  0  0  0  0  0  0  0  0
   -0.2877  -14.5597  -15.6621 N   0  0  0  0  0  0  0  0  0  0  0  0
   -1.6043  -14.5125  -15.2612 C   0  0  0  0  0  0  0  0  0  0  0  0
   -2.6056  -14.2930  -16.1626 N   0  0  0  0  0  0  0  0  0  0  0  0
   -2.2505  -14.1232  -17.4572 C   0  0  0  0  0  0  0  0  0  0  0  0
   -0.9611  -14.1641  -17.8838 C   0  0  0  0  0  0  0  0  0  0  0  0
    0.0668  -14.3843  -16.9721 C   0  0  0  0  0  0  0  0  0  0  0  0
    1.2764  -14.4387  -17.3304 O   0  0  0  0  0  0  0  0  0  0  0  0
   -0.9019  -13.9925  -19.2189 N   0  0  0  0  0  0  0  0  0  0  0  0
   -2.2105  -13.8366  -19.5609 C   0  0  0  0  0  0  0  0  0  0  0  0
   -3.0623  -13.9157  -18.4995 N   0  0  0  0  0  0  0  0  0  0  0  0
   -0.9492  -11.5229  -22.3906 H   0  0  0  0  0  0  0  0  0  0  0  0
   -4.0006  -10.8149  -23.9375 H   0  0  0  0  0  0  0  0  0  0  0  0
   -4.1487  -11.1549  -20.9997 H   0  0  0  0  0  0  0  0  0  0  0  0
   -5.5305  -11.5847  -22.0877 H   0  0  0  0  0  0  0  0  0  0  0  0
   -6.5965  -12.8105  -20.5621 H   0  0  0  0  0  0  0  0  0  0  0  0
   -5.0865  -10.7023  -19.2045 H   0  0  0  0  0  0  0  0  0  0  0  0
   -7.4236  -11.0866  -19.5054 H   0  0  0  0  0  0  0  0  0  0  0  0
   -3.9883  -11.8043  -17.6047 H   0  0  0  0  0  0  0  0  0  0  0  0
   -5.4875  -13.3495  -16.3008 H   0  0  0  0  0  0  0  0  0  0  0  0
   -4.9725  -14.5706  -17.8832 H   0  0  0  0  0  0  0  0  0  0  0  0
    0.4531  -14.7326  -14.9458 H   0  0  0  0  0  0  0  0  0  0  0  0
   -1.8526  -14.6531  -14.2174 H   0  0  0  0  0  0  0  0  0  0  0  0
   -2.5287  -13.6731  -20.5800 H   0  0  0  0  0  0  0  0  0  0  0  0
  2  1  2  0
  3  1  1  0
  4  1  1  0
  6  5  1  0
  6  1  1  0
  7  5  1  0
  8  7  1  0
  9  7  1  0
  9 10  1  0
 11  9  1  0
 11 12  1  0
 13 11  1  0
 13  8  1  0
 15 14  1  0
 16 15  2  0
 17 16  1  0
 18 17  2  0
 19 18  1  0
 19 14  1  0
 20 19  2  0
 21 18  1  0
 22 21  2  0
 23 22  1  0
 23 17  1  0
 13 23  1  0
  3 24  1  0
  4 25  1  0
  5 26  1  0
  5 27  1  0
  7 28  1  6
  9 29  1  6
 10 30  1  0
 11 31  1  1
 12 32  1  0
 13 33  1  1
 14 34  1  0
 15 35  1  0
 22 36  1  0
M  END
