
     RDKit          3D

 32 34  0  0  0  0  0  0  0  0999 V2000
  -20.8618   70.0240   69.4896 C   0  0  0  0  0  0  0  0  0  0  0  0
  -22.1939   69.5825   69.4195 O   0  0  0  0  0  0  0  0  0  0  0  0
  -19.9445   68.8884   69.9849 C   0  0  1  0  0  0  0  0  0  0  0  0
  -19.5796   68.0557   68.9083 O   0  0  0  0  0  0  0  0  0  0  0  0
  -18.6600   69.3926   70.6324 C   0  0  1  0  0  0  0  0  0  0  0  0
  -18.2376   68.4706   71.6058 O   0  0  0  0  0  0  0  0  0  0  0  0
  -17.6901   69.4349   69.4640 C   0  0  1  0  0  0  0  0  0  0  0  0
  -16.3987   68.9906   69.8029 O   0  0  0  0  0  0  0  0  0  0  0  0
  -18.3436   68.5129   68.4030 C   0  0  2  0  0  0  0  0  0  0  0  0
  -17.3510   72.3588   64.8674 N   0  0  0  0  0  0  0  0  0  0  0  0
  -16.7152   72.1443   66.0581 C   0  0  0  0  0  0  0  0  0  0  0  0
  -17.0654   71.0925   66.8491 N   0  0  0  0  0  0  0  0  0  0  0  0
  -18.0540   70.2606   66.4428 C   0  0  0  0  0  0  0  0  0  0  0  0
  -18.7062   70.4508   65.2626 C   0  0  0  0  0  0  0  0  0  0  0  0
  -18.3516   71.5354   64.4357 C   0  0  0  0  0  0  0  0  0  0  0  0
  -18.9909   71.7966   63.1884 N   0  0  0  0  0  0  0  0  0  0  0  0
  -19.6346   69.4846   65.1203 N   0  0  0  0  0  0  0  0  0  0  0  0
  -19.5847   68.6847   66.1907 N   0  0  0  0  0  0  0  0  0  0  0  0
  -18.6082   69.1266   67.0341 C   0  0  0  0  0  0  0  0  0  0  0  0
  -20.8077   70.8717   70.2052 H   0  0  0  0  0  0  0  0  0  0  0  0
  -20.5255   70.4051   68.4987 H   0  0  0  0  0  0  0  0  0  0  0  0
  -22.1679   68.6392   69.1111 H   0  0  0  0  0  0  0  0  0  0  0  0
  -20.5226   68.2841   70.7188 H   0  0  0  0  0  0  0  0  0  0  0  0
  -18.8067   70.4009   71.0903 H   0  0  0  0  0  0  0  0  0  0  0  0
  -18.2062   68.9596   72.4693 H   0  0  0  0  0  0  0  0  0  0  0  0
  -17.6217   70.4869   69.1748 H   0  0  0  0  0  0  0  0  0  0  0  0
  -16.4246   67.9976   69.8023 H   0  0  0  0  0  0  0  0  0  0  0  0
  -17.6953   67.6237   68.2458 H   0  0  0  0  0  0  0  0  0  0  0  0
  -15.9271   72.8138   66.3740 H   0  0  0  0  0  0  0  0  0  0  0  0
  -18.4311   71.8263   62.3075 H   0  0  0  0  0  0  0  0  0  0  0  0
  -20.0201   71.9612   63.1344 H   0  0  0  0  0  0  0  0  0  0  0  0
  -20.2977   69.3619   64.3238 H   0  0  0  0  0  0  0  0  0  0  0  0
  2  1  1  0
  3  1  1  0
  4  3  1  0
  5  3  1  0
  5  6  1  0
  7  5  1  0
  7  8  1  0
  9  4  1  0
  9  7  1  0
 11 10  2  0
 12 11  1  0
 13 12  2  0
 14 13  1  0
 15 14  2  0
 15 10  1  0
 16 15  1  0
 17 14  1  0
 18 17  1  0
 19 18  2  0
 19 13  1  0
  9 19  1  0
  1 20  1  0
  1 21  1  0
  2 22  1  0
  3 23  1  1
  5 24  1  1
  6 25  1  0
  7 26  1  6
  8 27  1  0
  9 28  1  6
 11 29  1  0
 16 30  1  0
 16 31  1  0
 17 32  1  0
M  END
