
     RDKit          3D

 32 34  0  0  0  0  0  0  0  0999 V2000
   -7.6084   77.5457   85.7733 C   0  0  0  0  0  0  0  0  0  0  0  0
   -7.2241   76.9505   86.9855 O   0  0  0  0  0  0  0  0  0  0  0  0
   -8.9774   78.2283   85.9354 C   0  0  1  0  0  0  0  0  0  0  0  0
   -8.8129   79.4970   86.5287 O   0  0  0  0  0  0  0  0  0  0  0  0
   -9.7281   78.4070   84.6153 C   0  0  1  0  0  0  0  0  0  0  0  0
  -11.1072   78.2493   84.8391 O   0  0  0  0  0  0  0  0  0  0  0  0
   -9.3974   79.8369   84.2165 C   0  0  1  0  0  0  0  0  0  0  0  0
  -10.4973   80.5444   83.6959 O   0  0  0  0  0  0  0  0  0  0  0  0
   -8.8310   80.4739   85.5110 C   0  0  2  0  0  0  0  0  0  0  0  0
   -4.4951   81.3816   82.5922 N   0  0  0  0  0  0  0  0  0  0  0  0
   -5.6677   80.8150   82.1796 C   0  0  0  0  0  0  0  0  0  0  0  0
   -6.7030   80.6600   83.0505 N   0  0  0  0  0  0  0  0  0  0  0  0
   -6.5610   81.0874   84.3282 C   0  0  0  0  0  0  0  0  0  0  0  0
   -5.4040   81.6485   84.7692 C   0  0  0  0  0  0  0  0  0  0  0  0
   -4.3244   81.8058   83.8789 C   0  0  0  0  0  0  0  0  0  0  0  0
   -3.0831   82.3834   84.2694 N   0  0  0  0  0  0  0  0  0  0  0  0
   -5.5406   81.9569   86.0745 N   0  0  0  0  0  0  0  0  0  0  0  0
   -6.7671   81.6012   86.4700 N   0  0  0  0  0  0  0  0  0  0  0  0
   -7.4388   81.0724   85.4087 C   0  0  0  0  0  0  0  0  0  0  0  0
   -7.6804   76.7655   84.9829 H   0  0  0  0  0  0  0  0  0  0  0  0
   -6.8440   78.2899   85.4639 H   0  0  0  0  0  0  0  0  0  0  0  0
   -6.5533   77.5596   87.3902 H   0  0  0  0  0  0  0  0  0  0  0  0
   -9.5823   77.5967   86.6235 H   0  0  0  0  0  0  0  0  0  0  0  0
   -9.3766   77.6746   83.8488 H   0  0  0  0  0  0  0  0  0  0  0  0
  -11.5214   78.0719   83.9543 H   0  0  0  0  0  0  0  0  0  0  0  0
   -8.6850   79.7729   83.3931 H   0  0  0  0  0  0  0  0  0  0  0  0
  -10.9334   79.9811   83.0044 H   0  0  0  0  0  0  0  0  0  0  0  0
   -9.5042   81.2914   85.8478 H   0  0  0  0  0  0  0  0  0  0  0  0
   -5.7729   80.4828   81.1561 H   0  0  0  0  0  0  0  0  0  0  0  0
   -2.9564   82.7502   85.2387 H   0  0  0  0  0  0  0  0  0  0  0  0
   -2.2849   82.4497   83.6001 H   0  0  0  0  0  0  0  0  0  0  0  0
   -4.8241   82.3914   86.6965 H   0  0  0  0  0  0  0  0  0  0  0  0
  2  1  1  0
  3  1  1  0
  4  3  1  0
  5  3  1  0
  5  6  1  0
  7  5  1  0
  7  8  1  0
  9  7  1  0
  9  4  1  0
 11 10  2  0
 12 11  1  0
 13 12  2  0
 14 13  1  0
 15 14  2  0
 15 10  1  0
 16 15  1  0
 17 14  1  0
 18 17  1  0
 19 13  1  0
  9 19  1  0
 19 18  2  0
  1 20  1  0
  1 21  1  0
  2 22  1  0
  3 23  1  1
  5 24  1  6
  6 25  1  0
  7 26  1  6
  8 27  1  0
  9 28  1  1
 11 29  1  0
 16 30  1  0
 16 31  1  0
 17 32  1  0
M  END
