
     RDKit          3D

 32 34  0  0  0  0  0  0  0  0999 V2000
  -21.3299   69.8819   69.1854 C   0  0  0  0  0  0  0  0  0  0  0  0
  -22.6627   69.4430   69.1135 O   0  0  0  0  0  0  0  0  0  0  0  0
  -20.4158   68.7455   69.6849 C   0  0  1  0  0  0  0  0  0  0  0  0
  -20.0738   67.8934   68.6159 O   0  0  0  0  0  0  0  0  0  0  0  0
  -19.1178   69.2474   70.3066 C   0  0  1  0  0  0  0  0  0  0  0  0
  -18.6899   68.3363   71.2877 O   0  0  0  0  0  0  0  0  0  0  0  0
  -18.1642   69.2634   69.1241 C   0  0  1  0  0  0  0  0  0  0  0  0
  -16.8722   68.8123   69.4514 O   0  0  0  0  0  0  0  0  0  0  0  0
  -18.8410   68.3316   68.0865 C   0  0  2  0  0  0  0  0  0  0  0  0
  -17.6908   71.9676   64.3806 N   0  0  0  0  0  0  0  0  0  0  0  0
  -17.0164   71.7304   65.5456 C   0  0  0  0  0  0  0  0  0  0  0  0
  -17.4184   70.7382   66.3873 N   0  0  0  0  0  0  0  0  0  0  0  0
  -18.4970   69.9884   66.0573 C   0  0  0  0  0  0  0  0  0  0  0  0
  -19.1893   70.2032   64.9045 C   0  0  0  0  0  0  0  0  0  0  0  0
  -18.7819   71.2266   64.0256 C   0  0  0  0  0  0  0  0  0  0  0  0
  -19.4584   71.5090   62.8028 N   0  0  0  0  0  0  0  0  0  0  0  0
  -20.2066   69.3219   64.8396 N   0  0  0  0  0  0  0  0  0  0  0  0
  -20.1736   68.5519   65.9325 N   0  0  0  0  0  0  0  0  0  0  0  0
  -19.1195   68.9271   66.7123 C   0  0  0  0  0  0  0  0  0  0  0  0
  -21.2755   70.7310   69.8994 H   0  0  0  0  0  0  0  0  0  0  0  0
  -20.9907   70.2603   68.1945 H   0  0  0  0  0  0  0  0  0  0  0  0
  -23.1665   69.9400   69.8098 H   0  0  0  0  0  0  0  0  0  0  0  0
  -20.9888   68.1576   70.4359 H   0  0  0  0  0  0  0  0  0  0  0  0
  -19.2489   70.2638   70.7511 H   0  0  0  0  0  0  0  0  0  0  0  0
  -19.5052   68.0098   71.7507 H   0  0  0  0  0  0  0  0  0  0  0  0
  -18.0904   70.3102   68.8181 H   0  0  0  0  0  0  0  0  0  0  0  0
  -16.9070   67.8197   69.4663 H   0  0  0  0  0  0  0  0  0  0  0  0
  -18.2030   67.4342   67.9336 H   0  0  0  0  0  0  0  0  0  0  0  0
  -16.1564   72.3342   65.8003 H   0  0  0  0  0  0  0  0  0  0  0  0
  -19.7190   70.7323   62.1554 H   0  0  0  0  0  0  0  0  0  0  0  0
  -19.7029   72.4879   62.5357 H   0  0  0  0  0  0  0  0  0  0  0  0
  -20.9180   69.2371   64.0808 H   0  0  0  0  0  0  0  0  0  0  0  0
  2  1  1  0
  3  1  1  0
  4  3  1  0
  5  3  1  0
  5  6  1  0
  7  5  1  0
  7  8  1  0
  9  4  1  0
  9  7  1  0
 11 10  2  0
 12 11  1  0
 13 12  2  0
 14 13  1  0
 15 14  2  0
 15 10  1  0
 16 15  1  0
 17 14  1  0
 18 17  1  0
 19 18  2  0
 19 13  1  0
  9 19  1  0
  1 20  1  0
  1 21  1  0
  2 22  1  0
  3 23  1  1
  5 24  1  1
  6 25  1  0
  7 26  1  6
  8 27  1  0
  9 28  1  6
 11 29  1  0
 16 30  1  0
 16 31  1  0
 17 32  1  0
M  END
