
     RDKit          3D

 43 46  0  0  0  0  0  0  0  0999 V2000
   18.1491   23.6637   26.4361 Cl  0  0  0  0  0  0  0  0  0  0  0  0
   15.5233   22.1628   25.1607 Cl  0  0  0  0  0  0  0  0  0  0  0  0
   16.9997   22.7891   27.4199 C   0  0  0  0  0  0  0  0  0  0  0  0
   14.7401   16.2226   33.6384 C   0  0  0  0  0  0  0  0  0  0  0  0
   13.2581   20.4077   26.3220 C   0  0  0  0  0  0  0  0  0  0  0  0
   13.5057   21.4327   31.9404 C   0  0  0  0  0  0  0  0  0  0  0  0
   17.2751   22.7692   28.7961 C   0  0  0  0  0  0  0  0  0  0  0  0
   16.4424   22.0961   29.6759 C   0  0  0  0  0  0  0  0  0  0  0  0
   12.6456   17.3268   33.0688 C   0  0  0  0  0  0  0  0  0  0  0  0
   14.1361   16.5130   31.2885 C   0  0  0  0  0  0  0  0  0  0  0  0
   13.1608   18.7607   32.8821 C   0  0  0  0  0  0  0  0  0  0  0  0
   14.6766   17.9250   31.0558 C   0  0  0  0  0  0  0  0  0  0  0  0
   12.4314   19.4077   29.2227 C   0  0  0  0  0  0  0  0  0  0  0  0
   15.8608   22.1215   26.8882 C   0  0  0  0  0  0  0  0  0  0  0  0
   13.5370   20.2698   28.8321 C   0  0  0  0  0  0  0  0  0  0  0  0
   14.4041   20.7128   29.8007 C   0  0  0  0  0  0  0  0  0  0  0  0
   15.3462   21.4430   29.1494 C   0  0  0  0  0  0  0  0  0  0  0  0
   15.0398   21.4304   27.8049 C   0  0  0  0  0  0  0  0  0  0  0  0
   14.2919   20.3945   31.2664 C   0  0  2  0  0  0  0  0  0  0  0  0
   13.6272   18.9971   31.4301 C   0  0  0  0  0  0  0  0  0  0  0  0
   12.8746   22.2205   32.5030 N   0  0  0  0  0  0  0  0  0  0  0  0
   12.4519   18.8737   30.5389 N   0  0  0  0  0  0  0  0  0  0  0  0
   13.6410   16.3174   32.6652 N   0  0  0  0  0  0  0  0  0  0  0  0
   13.9105   20.6990   27.5977 N   0  0  0  0  0  0  0  0  0  0  0  0
   11.4394   19.1947   28.4852 O   0  0  0  0  0  0  0  0  0  0  0  0
   15.6569   16.7461   33.3004 H   0  0  0  0  0  0  0  0  0  0  0  0
   14.9915   15.1564   33.8234 H   0  0  0  0  0  0  0  0  0  0  0  0
   14.4249   16.6509   34.6140 H   0  0  0  0  0  0  0  0  0  0  0  0
   13.9907   20.5096   25.4953 H   0  0  0  0  0  0  0  0  0  0  0  0
   12.4070   21.1034   26.1685 H   0  0  0  0  0  0  0  0  0  0  0  0
   12.8768   19.3740   26.2687 H   0  0  0  0  0  0  0  0  0  0  0  0
   18.1452   23.2833   29.1854 H   0  0  0  0  0  0  0  0  0  0  0  0
   16.6553   22.0883   30.7370 H   0  0  0  0  0  0  0  0  0  0  0  0
   11.7022   17.1445   32.5176 H   0  0  0  0  0  0  0  0  0  0  0  0
   12.3754   17.1865   34.1389 H   0  0  0  0  0  0  0  0  0  0  0  0
   13.3066   16.3131   30.5756 H   0  0  0  0  0  0  0  0  0  0  0  0
   14.9310   15.7707   31.0550 H   0  0  0  0  0  0  0  0  0  0  0  0
   12.3242   19.4462   33.1391 H   0  0  0  0  0  0  0  0  0  0  0  0
   13.9860   18.9722   33.5952 H   0  0  0  0  0  0  0  0  0  0  0  0
   14.9555   18.0151   29.9834 H   0  0  0  0  0  0  0  0  0  0  0  0
   15.6107   18.0659   31.6405 H   0  0  0  0  0  0  0  0  0  0  0  0
   15.3013   20.3914   31.7318 H   0  0  0  0  0  0  0  0  0  0  0  0
   11.5358   18.5219   30.8924 H   0  0  0  0  0  0  0  0  0  0  0  0
  3  1  1  0
  7  3  2  0
  8  7  1  0
 11  9  1  0
 12 10  1  0
 14  2  1  0
 14  3  1  0
 15 13  1  0
 16 15  2  0
 17 16  1  0
 17  8  2  0
 18 14  2  0
 18 17  1  0
 19 16  1  0
 19  6  1  0
 20 12  1  0
 20 11  1  0
 20 19  1  0
 21  6  3  0
 22 20  1  0
 22 13  1  0
 23  9  1  0
 23 10  1  0
 23  4  1  0
 24  5  1  0
 24 15  1  0
 24 18  1  0
 25 13  2  0
  4 26  1  0
  4 27  1  0
  4 28  1  0
  5 29  1  0
  5 30  1  0
  5 31  1  0
  7 32  1  0
  8 33  1  0
  9 34  1  0
  9 35  1  0
 10 36  1  0
 10 37  1  0
 11 38  1  0
 11 39  1  0
 12 40  1  0
 12 41  1  0
 19 42  1  1
 22 43  1  0
M  END
