
     RDKit          3D

 62 64  0  0  0  0  0  0  0  0999 V2000
   17.5845   39.7628  -17.6921 P   0  0  2  0  0  0  0  0  0  0  0  0
   20.2072   39.1726  -16.8255 P   0  0  1  0  0  0  0  0  0  0  0  0
   16.6935   39.5105  -18.8860 O   0  0  0  0  0  0  0  0  0  0  0  0
   16.9188   39.0635  -16.3129 O   0  0  0  0  0  0  0  0  0  0  0  0
   20.0741   37.9815  -15.9050 O   0  0  0  0  0  0  0  0  0  0  0  0
   20.2730   40.5980  -15.9309 O   0  0  0  0  0  0  0  0  0  0  0  0
   16.0247   44.7583  -17.4586 C   0  0  1  0  0  0  0  0  0  0  0  0
   21.4642   38.7709  -19.0551 C   0  0  2  0  0  0  0  0  0  0  0  0
   21.6553   38.9688  -17.6595 O   0  0  0  0  0  0  0  0  0  0  0  0
   17.2016   45.1179  -16.5606 C   0  0  0  0  0  0  0  0  0  0  0  0
   22.2883   37.5509  -19.4963 C   0  0  2  0  0  0  0  0  0  0  0  0
   21.8184   36.3760  -18.8718 O   0  0  0  0  0  0  0  0  0  0  0  0
   18.1720   44.0148  -16.8355 C   0  0  2  0  0  0  0  0  0  0  0  0
   23.7588   37.8204  -19.1301 C   0  0  1  0  0  0  0  0  0  0  0  0
   19.5011   44.4259  -16.6529 O   0  0  0  0  0  0  0  0  0  0  0  0
   24.5864   36.7668  -19.5538 O   0  0  0  0  0  0  0  0  0  0  0  0
   17.8301   43.6123  -18.2864 C   0  0  2  0  0  0  0  0  0  0  0  0
   24.2350   39.2023  -19.6690 C   0  0  2  0  0  0  0  0  0  0  0  0
   25.5020   39.5783  -19.0398 N   0  0  0  0  0  0  0  0  0  0  0  0
   16.4602   43.8889  -18.4886 O   0  0  0  0  0  0  0  0  0  0  0  0
   18.0890   42.1253  -18.5752 C   0  0  0  0  0  0  0  0  0  0  0  0
   13.5517   40.7397  -15.8172 C   0  0  0  0  0  0  0  0  0  0  0  0
   23.1921   40.3177  -19.3844 C   0  0  2  0  0  0  0  0  0  0  0  0
   17.7133   41.4140  -17.4233 O   0  0  0  0  0  0  0  0  0  0  0  0
   21.8852   39.9201  -19.7828 O   0  0  0  0  0  0  0  0  0  0  0  0
   23.5603   41.6384  -20.0694 C   0  0  0  0  0  0  0  0  0  0  0  0
   14.9410   44.1464  -16.6584 N   0  0  0  0  0  0  0  0  0  0  0  0
   14.1363   44.9542  -15.9004 C   0  0  0  0  0  0  0  0  0  0  0  0
   14.3040   46.2031  -15.9091 O   0  0  0  0  0  0  0  0  0  0  0  0
   13.1573   44.4238  -15.1207 N   0  0  0  0  0  0  0  0  0  0  0  0
   12.9413   43.0860  -15.0758 C   0  0  0  0  0  0  0  0  0  0  0  0
   12.0159   42.6293  -14.3504 O   0  0  0  0  0  0  0  0  0  0  0  0
   13.7442   42.2290  -15.8384 C   0  0  0  0  0  0  0  0  0  0  0  0
   14.7615   42.7915  -16.6146 C   0  0  0  0  0  0  0  0  0  0  0  0
   19.0765   39.1005  -18.0809 O   0  0  0  0  0  0  0  0  0  0  0  0
   15.9400   39.1125  -16.4456 H   0  0  0  0  0  0  0  0  0  0  0  0
   19.4496   41.0949  -16.1623 H   0  0  0  0  0  0  0  0  0  0  0  0
   15.6447   45.6828  -17.9488 H   0  0  0  0  0  0  0  0  0  0  0  0
   20.4097   38.5585  -19.3364 H   0  0  0  0  0  0  0  0  0  0  0  0
   17.6192   46.1003  -16.8755 H   0  0  0  0  0  0  0  0  0  0  0  0
   16.9335   45.1702  -15.4818 H   0  0  0  0  0  0  0  0  0  0  0  0
   22.1927   37.4289  -20.5977 H   0  0  0  0  0  0  0  0  0  0  0  0
   21.9545   36.4648  -17.8926 H   0  0  0  0  0  0  0  0  0  0  0  0
   17.9579   43.2237  -16.0877 H   0  0  0  0  0  0  0  0  0  0  0  0
   23.8359   37.8477  -18.0204 H   0  0  0  0  0  0  0  0  0  0  0  0
   19.7016   45.1313  -17.3222 H   0  0  0  0  0  0  0  0  0  0  0  0
   25.0045   36.3757  -18.7427 H   0  0  0  0  0  0  0  0  0  0  0  0
   18.4128   44.2242  -19.0105 H   0  0  0  0  0  0  0  0  0  0  0  0
   24.3807   39.1282  -20.7702 H   0  0  0  0  0  0  0  0  0  0  0  0
   26.2304   38.8753  -19.3025 H   0  0  0  0  0  0  0  0  0  0  0  0
   25.4056   39.5582  -17.9980 H   0  0  0  0  0  0  0  0  0  0  0  0
   19.1711   41.9764  -18.7708 H   0  0  0  0  0  0  0  0  0  0  0  0
   17.5061   41.8234  -19.4743 H   0  0  0  0  0  0  0  0  0  0  0  0
   13.8379   40.2955  -16.7941 H   0  0  0  0  0  0  0  0  0  0  0  0
   12.4887   40.4774  -15.6324 H   0  0  0  0  0  0  0  0  0  0  0  0
   14.1786   40.2981  -15.0149 H   0  0  0  0  0  0  0  0  0  0  0  0
   23.2078   40.5616  -18.2976 H   0  0  0  0  0  0  0  0  0  0  0  0
   24.2571   42.2207  -19.4297 H   0  0  0  0  0  0  0  0  0  0  0  0
   22.6520   42.2470  -20.2649 H   0  0  0  0  0  0  0  0  0  0  0  0
   24.0592   41.4314  -21.0400 H   0  0  0  0  0  0  0  0  0  0  0  0
   12.5562   45.0599  -14.5477 H   0  0  0  0  0  0  0  0  0  0  0  0
   15.3778   42.1336  -17.2058 H   0  0  0  0  0  0  0  0  0  0  0  0
  3  1  2  0
  1  4  1  1
  5  2  2  0
  2  6  1  1
  8  9  1  0
  9  2  1  0
 10  7  1  0
 11  8  1  0
 11 12  1  0
 13 10  1  0
 14 11  1  0
 13 15  1  0
 14 16  1  0
 17 13  1  0
 18 14  1  0
 18 19  1  0
 20  7  1  0
 20 17  1  0
 17 21  1  0
 23 18  1  0
 24 21  1  0
 24  1  1  0
 25  8  1  0
 25 23  1  0
 23 26  1  0
  7 27  1  0
 28 27  1  0
 29 28  2  0
 30 28  1  0
 31 30  1  0
 32 31  2  0
 33 31  1  0
 33 22  1  0
 34 33  2  0
 34 27  1  0
 35  2  1  0
 35  1  1  0
  4 36  1  0
  6 37  1  0
  7 38  1  6
  8 39  1  1
 10 40  1  0
 10 41  1  0
 11 42  1  6
 12 43  1  0
 13 44  1  1
 14 45  1  1
 15 46  1  0
 16 47  1  0
 17 48  1  6
 18 49  1  6
 19 50  1  0
 19 51  1  0
 21 52  1  0
 21 53  1  0
 22 54  1  0
 22 55  1  0
 22 56  1  0
 23 57  1  1
 26 58  1  0
 26 59  1  0
 26 60  1  0
 30 61  1  0
 34 62  1  0
M  END
