
     RDKit          3D

 62 64  0  0  0  0  0  0  0  0999 V2000
  -11.0268   35.8224  -23.3488 P   0  0  1  0  0  0  0  0  0  0  0  0
  -11.5766   34.4386  -25.6835 P   0  0  1  0  0  0  0  0  0  0  0  0
   -9.6727   35.1455  -23.2819 O   0  0  0  0  0  0  0  0  0  0  0  0
  -11.6825   36.0145  -21.8173 O   0  0  0  0  0  0  0  0  0  0  0  0
  -10.7778   33.1669  -25.5274 O   0  0  0  0  0  0  0  0  0  0  0  0
  -10.7353   35.6559  -26.4839 O   0  0  0  0  0  0  0  0  0  0  0  0
  -10.2591   40.9595  -23.5620 C   0  0  1  0  0  0  0  0  0  0  0  0
  -12.7347   34.2583  -27.9772 C   0  0  2  0  0  0  0  0  0  0  0  0
  -12.9312   34.0374  -26.5894 O   0  0  0  0  0  0  0  0  0  0  0  0
   -9.9829   40.9188  -25.0651 C   0  0  0  0  0  0  0  0  0  0  0  0
  -13.8763   35.1568  -28.4844 C   0  0  2  0  0  0  0  0  0  0  0  0
  -13.8490   36.4127  -27.8431 O   0  0  0  0  0  0  0  0  0  0  0  0
  -10.6405   39.6442  -25.4977 C   0  0  2  0  0  0  0  0  0  0  0  0
  -15.2072   34.4367  -28.2173 C   0  0  1  0  0  0  0  0  0  0  0  0
  -11.1541   39.7250  -26.7994 O   0  0  0  0  0  0  0  0  0  0  0  0
  -16.2722   35.2080  -28.7113 O   0  0  0  0  0  0  0  0  0  0  0  0
  -11.7590   39.4803  -24.4653 C   0  0  2  0  0  0  0  0  0  0  0  0
  -15.1737   33.0202  -28.8414 C   0  0  2  0  0  0  0  0  0  0  0  0
  -16.3863   32.2996  -28.4528 N   0  0  0  0  0  0  0  0  0  0  0  0
  -11.3480   40.1033  -23.2657 O   0  0  0  0  0  0  0  0  0  0  0  0
  -12.0585   38.0016  -24.2037 C   0  0  0  0  0  0  0  0  0  0  0  0
   -7.6438   37.6357  -20.8744 C   0  0  0  0  0  0  0  0  0  0  0  0
  -13.8994   32.2649  -28.3650 C   0  0  2  0  0  0  0  0  0  0  0  0
  -10.8261   37.3477  -24.0242 O   0  0  0  0  0  0  0  0  0  0  0  0
  -12.7317   33.0176  -28.6803 O   0  0  0  0  0  0  0  0  0  0  0  0
  -13.7886   30.8495  -28.9405 C   0  0  0  0  0  0  0  0  0  0  0  0
   -9.0533   40.5878  -22.7855 N   0  0  0  0  0  0  0  0  0  0  0  0
   -8.0349   41.4943  -22.6478 C   0  0  0  0  0  0  0  0  0  0  0  0
   -8.1256   42.6397  -23.1674 O   0  0  0  0  0  0  0  0  0  0  0  0
   -6.9173   41.1730  -21.9465 N   0  0  0  0  0  0  0  0  0  0  0  0
   -6.7763   39.9514  -21.3739 C   0  0  0  0  0  0  0  0  0  0  0  0
   -5.7310   39.6850  -20.7261 O   0  0  0  0  0  0  0  0  0  0  0  0
   -7.7846   38.9959  -21.5027 C   0  0  0  0  0  0  0  0  0  0  0  0
   -8.9304   39.3478  -22.2177 C   0  0  0  0  0  0  0  0  0  0  0  0
  -12.1698   34.9189  -24.1884 O   0  0  0  0  0  0  0  0  0  0  0  0
  -12.6626   35.9347  -21.9348 H   0  0  0  0  0  0  0  0  0  0  0  0
  -10.5752   35.2965  -27.3927 H   0  0  0  0  0  0  0  0  0  0  0  0
  -10.5677   41.9915  -23.2810 H   0  0  0  0  0  0  0  0  0  0  0  0
  -11.7841   34.7784  -28.2216 H   0  0  0  0  0  0  0  0  0  0  0  0
   -8.8976   40.9239  -25.3096 H   0  0  0  0  0  0  0  0  0  0  0  0
  -10.4708   41.7894  -25.5582 H   0  0  0  0  0  0  0  0  0  0  0  0
  -13.7540   35.3176  -29.5783 H   0  0  0  0  0  0  0  0  0  0  0  0
  -13.2699   36.3442  -27.0398 H   0  0  0  0  0  0  0  0  0  0  0  0
   -9.8577   38.8534  -25.4578 H   0  0  0  0  0  0  0  0  0  0  0  0
  -15.3382   34.3276  -27.1134 H   0  0  0  0  0  0  0  0  0  0  0  0
  -12.0011   40.2390  -26.7356 H   0  0  0  0  0  0  0  0  0  0  0  0
  -17.0993   34.8791  -28.2715 H   0  0  0  0  0  0  0  0  0  0  0  0
  -12.6872   39.9831  -24.8191 H   0  0  0  0  0  0  0  0  0  0  0  0
  -15.1473   33.1204  -29.9504 H   0  0  0  0  0  0  0  0  0  0  0  0
  -16.5003   31.4578  -29.0620 H   0  0  0  0  0  0  0  0  0  0  0  0
  -16.3168   31.9803  -27.4588 H   0  0  0  0  0  0  0  0  0  0  0  0
  -12.5840   37.5797  -25.0836 H   0  0  0  0  0  0  0  0  0  0  0  0
  -12.7153   37.9288  -23.3082 H   0  0  0  0  0  0  0  0  0  0  0  0
   -8.5061   36.9812  -21.1236 H   0  0  0  0  0  0  0  0  0  0  0  0
   -7.5879   37.7386  -19.7703 H   0  0  0  0  0  0  0  0  0  0  0  0
   -6.7182   37.1453  -21.2428 H   0  0  0  0  0  0  0  0  0  0  0  0
  -13.9701   32.0952  -27.2665 H   0  0  0  0  0  0  0  0  0  0  0  0
  -13.8405   30.8811  -30.0494 H   0  0  0  0  0  0  0  0  0  0  0  0
  -14.5975   30.1957  -28.5521 H   0  0  0  0  0  0  0  0  0  0  0  0
  -12.8161   30.4015  -28.6446 H   0  0  0  0  0  0  0  0  0  0  0  0
   -6.1520   41.8790  -21.8463 H   0  0  0  0  0  0  0  0  0  0  0  0
   -9.7292   38.6283  -22.2828 H   0  0  0  0  0  0  0  0  0  0  0  0
  3  1  2  0
  1  4  1  1
  5  2  2  0
  2  6  1  6
  8  9  1  0
  9  2  1  0
 10  7  1  0
 11  8  1  0
 11 12  1  0
 13 10  1  0
 14 11  1  0
 13 15  1  0
 14 16  1  0
 17 13  1  0
 18 14  1  0
 18 19  1  0
 20 17  1  0
 20  7  1  0
 17 21  1  0
 23 18  1  0
 24 21  1  0
 24  1  1  0
 25 23  1  0
 25  8  1  0
 23 26  1  0
  7 27  1  0
 28 27  1  0
 29 28  2  0
 30 28  1  0
 31 30  1  0
 32 31  2  0
 33 31  1  0
 33 22  1  0
 34 33  2  0
 34 27  1  0
 35  2  1  0
 35  1  1  0
  4 36  1  0
  6 37  1  0
  7 38  1  1
  8 39  1  1
 10 40  1  0
 10 41  1  0
 11 42  1  6
 12 43  1  0
 13 44  1  6
 14 45  1  1
 15 46  1  0
 16 47  1  0
 17 48  1  6
 18 49  1  6
 19 50  1  0
 19 51  1  0
 21 52  1  0
 21 53  1  0
 22 54  1  0
 22 55  1  0
 22 56  1  0
 23 57  1  1
 26 58  1  0
 26 59  1  0
 26 60  1  0
 30 61  1  0
 34 62  1  0
M  END
