
     RDKit          3D

 62 64  0  0  0  0  0  0  0  0999 V2000
  -10.5957   37.0675  -25.7648 P   0  0  1  0  0  0  0  0  0  0  0  0
  -11.1978   35.2424  -27.7584 P   0  0  1  0  0  0  0  0  0  0  0  0
   -9.3820   36.1661  -25.6599 O   0  0  0  0  0  0  0  0  0  0  0  0
  -11.3183   37.2843  -24.2671 O   0  0  0  0  0  0  0  0  0  0  0  0
  -10.9053   33.9867  -26.9726 O   0  0  0  0  0  0  0  0  0  0  0  0
   -9.8875   35.7748  -28.6695 O   0  0  0  0  0  0  0  0  0  0  0  0
   -8.9673   42.0012  -25.5888 C   0  0  1  0  0  0  0  0  0  0  0  0
  -13.2935   35.9816  -29.0609 C   0  0  2  0  0  0  0  0  0  0  0  0
  -12.4581   34.8647  -28.8005 O   0  0  0  0  0  0  0  0  0  0  0  0
   -8.5945   41.9965  -27.0714 C   0  0  0  0  0  0  0  0  0  0  0  0
  -14.7436   35.5787  -28.7402 C   0  0  2  0  0  0  0  0  0  0  0  0
  -14.8827   35.2492  -27.3759 O   0  0  0  0  0  0  0  0  0  0  0  0
   -9.4230   40.8791  -27.6273 C   0  0  2  0  0  0  0  0  0  0  0  0
  -15.1167   34.3835  -29.6309 C   0  0  1  0  0  0  0  0  0  0  0  0
   -9.8210   41.1181  -28.9499 O   0  0  0  0  0  0  0  0  0  0  0  0
  -16.4528   34.0170  -29.3992 O   0  0  0  0  0  0  0  0  0  0  0  0
  -10.6243   40.8524  -26.6788 C   0  0  2  0  0  0  0  0  0  0  0  0
  -14.8566   34.7328  -31.1166 C   0  0  2  0  0  0  0  0  0  0  0  0
  -15.0775   33.5386  -31.9325 N   0  0  0  0  0  0  0  0  0  0  0  0
  -10.2023   41.3290  -25.4175 O   0  0  0  0  0  0  0  0  0  0  0  0
  -11.1847   39.4347  -26.5350 C   0  0  0  0  0  0  0  0  0  0  0  0
   -7.1439   38.1361  -22.9721 C   0  0  0  0  0  0  0  0  0  0  0  0
  -13.4035   35.2631  -31.2863 C   0  0  2  0  0  0  0  0  0  0  0  0
  -10.0950   38.5707  -26.3238 O   0  0  0  0  0  0  0  0  0  0  0  0
  -13.1801   36.3767  -30.4264 O   0  0  0  0  0  0  0  0  0  0  0  0
  -13.0637   35.6345  -32.7331 C   0  0  0  0  0  0  0  0  0  0  0  0
   -7.8994   41.3865  -24.7660 N   0  0  0  0  0  0  0  0  0  0  0  0
   -6.7566   42.0964  -24.5060 C   0  0  0  0  0  0  0  0  0  0  0  0
   -6.6170   43.2672  -24.9530 O   0  0  0  0  0  0  0  0  0  0  0  0
   -5.7616   41.5503  -23.7603 N   0  0  0  0  0  0  0  0  0  0  0  0
   -5.8681   40.2930  -23.2624 C   0  0  0  0  0  0  0  0  0  0  0  0
   -4.9313   39.8165  -22.5707 O   0  0  0  0  0  0  0  0  0  0  0  0
   -7.0100   39.5327  -23.5161 C   0  0  0  0  0  0  0  0  0  0  0  0
   -8.0266   40.1144  -24.2753 C   0  0  0  0  0  0  0  0  0  0  0  0
  -11.8103   36.4204  -26.7312 O   0  0  0  0  0  0  0  0  0  0  0  0
  -12.2870   37.3800  -24.4497 H   0  0  0  0  0  0  0  0  0  0  0  0
   -9.7244   35.0501  -29.3244 H   0  0  0  0  0  0  0  0  0  0  0  0
   -9.1186   43.0537  -25.2593 H   0  0  0  0  0  0  0  0  0  0  0  0
  -13.0630   36.8728  -28.4392 H   0  0  0  0  0  0  0  0  0  0  0  0
   -7.5089   41.8294  -27.2478 H   0  0  0  0  0  0  0  0  0  0  0  0
   -8.8934   42.9637  -27.5346 H   0  0  0  0  0  0  0  0  0  0  0  0
  -15.4173   36.4347  -28.9659 H   0  0  0  0  0  0  0  0  0  0  0  0
  -15.4806   34.4603  -27.3013 H   0  0  0  0  0  0  0  0  0  0  0  0
   -8.7882   39.9650  -27.5919 H   0  0  0  0  0  0  0  0  0  0  0  0
  -14.4653   33.5182  -29.3576 H   0  0  0  0  0  0  0  0  0  0  0  0
   -9.1788   40.6301  -29.5288 H   0  0  0  0  0  0  0  0  0  0  0  0
  -16.5666   33.0939  -29.7463 H   0  0  0  0  0  0  0  0  0  0  0  0
  -11.4277   41.5255  -27.0549 H   0  0  0  0  0  0  0  0  0  0  0  0
  -15.5747   35.5257  -31.4268 H   0  0  0  0  0  0  0  0  0  0  0  0
  -15.1577   33.8146  -32.9375 H   0  0  0  0  0  0  0  0  0  0  0  0
  -14.2722   32.8777  -31.8353 H   0  0  0  0  0  0  0  0  0  0  0  0
  -11.7087   39.1581  -27.4715 H   0  0  0  0  0  0  0  0  0  0  0  0
  -11.9071   39.4262  -25.6883 H   0  0  0  0  0  0  0  0  0  0  0  0
   -8.0833   37.6535  -23.3168 H   0  0  0  0  0  0  0  0  0  0  0  0
   -7.1511   38.1669  -21.8623 H   0  0  0  0  0  0  0  0  0  0  0  0
   -6.2892   37.5155  -23.3147 H   0  0  0  0  0  0  0  0  0  0  0  0
  -12.6898   34.4404  -31.0534 H   0  0  0  0  0  0  0  0  0  0  0  0
  -13.8019   36.3659  -33.1249 H   0  0  0  0  0  0  0  0  0  0  0  0
  -13.0540   34.7356  -33.3847 H   0  0  0  0  0  0  0  0  0  0  0  0
  -12.0538   36.0954  -32.7726 H   0  0  0  0  0  0  0  0  0  0  0  0
   -4.8983   42.1084  -23.5665 H   0  0  0  0  0  0  0  0  0  0  0  0
   -8.9276   39.5469  -24.4370 H   0  0  0  0  0  0  0  0  0  0  0  0
  3  1  2  0
  1  4  1  1
  5  2  2  0
  2  6  1  6
  8  9  1  0
  9  2  1  0
 10  7  1  0
 11  8  1  0
 11 12  1  0
 13 10  1  0
 14 11  1  0
 13 15  1  0
 14 16  1  0
 17 13  1  0
 18 14  1  0
 18 19  1  0
 20 17  1  0
 20  7  1  0
 17 21  1  0
 23 18  1  0
 24 21  1  0
 24  1  1  0
 25 23  1  0
 25  8  1  0
 23 26  1  0
  7 27  1  0
 28 27  1  0
 29 28  2  0
 30 28  1  0
 31 30  1  0
 32 31  2  0
 33 31  1  0
 33 22  1  0
 34 33  2  0
 34 27  1  0
 35  2  1  0
 35  1  1  0
  4 36  1  0
  6 37  1  0
  7 38  1  1
  8 39  1  1
 10 40  1  0
 10 41  1  0
 11 42  1  6
 12 43  1  0
 13 44  1  6
 14 45  1  1
 15 46  1  0
 16 47  1  0
 17 48  1  6
 18 49  1  6
 19 50  1  0
 19 51  1  0
 21 52  1  0
 21 53  1  0
 22 54  1  0
 22 55  1  0
 22 56  1  0
 23 57  1  1
 26 58  1  0
 26 59  1  0
 26 60  1  0
 30 61  1  0
 34 62  1  0
M  END
