
     RDKit          3D

 39 40  0  0  0  0  0  0  0  0999 V2000
   -5.9870  -29.8367    6.0972 C   0  0  0  0  0  0  0  0  0  0  0  0
   -6.8151  -28.7689    5.9803 N   0  0  0  0  0  0  0  0  0  0  0  0
   -6.5821  -27.7993    5.0608 C   0  0  0  0  0  0  0  0  0  0  0  0
   -7.4555  -26.6892    4.9551 N   0  0  0  0  0  0  0  0  0  0  0  0
   -5.5044  -27.8757    4.2485 N   0  0  0  0  0  0  0  0  0  0  0  0
   -4.6443  -28.9197    4.3294 C   0  0  0  0  0  0  0  0  0  0  0  0
   -3.4974  -28.9455    3.4894 N   0  0  0  0  0  0  0  0  0  0  0  0
   -4.8721  -29.9592    5.2505 C   0  0  0  0  0  0  0  0  0  0  0  0
   -3.8852  -31.1124    5.3191 C   0  0  0  0  0  0  0  0  0  0  0  0
   -4.2988  -32.2610    6.2019 C   0  0  0  0  0  0  0  0  0  0  0  0
   -3.5506  -32.5875    7.3353 C   0  0  0  0  0  0  0  0  0  0  0  0
   -3.9283  -33.6685    8.1494 C   0  0  0  0  0  0  0  0  0  0  0  0
   -3.2033  -34.0121    9.2950 O   0  0  0  0  0  0  0  0  0  0  0  0
   -3.4869  -35.1620   10.0846 C   0  0  0  0  0  0  0  0  0  0  0  0
   -5.0594  -34.4223    7.8177 C   0  0  0  0  0  0  0  0  0  0  0  0
   -5.4494  -35.4673    8.6492 O   0  0  0  0  0  0  0  0  0  0  0  0
   -5.9793  -36.6589    8.0916 C   0  0  0  0  0  0  0  0  0  0  0  0
   -5.7976  -34.1198    6.6651 C   0  0  0  0  0  0  0  0  0  0  0  0
   -6.8959  -34.9126    6.3196 O   0  0  0  0  0  0  0  0  0  0  0  0
   -7.9611  -34.4279    5.5078 C   0  0  0  0  0  0  0  0  0  0  0  0
   -5.4074  -33.0378    5.8620 C   0  0  0  0  0  0  0  0  0  0  0  0
   -6.2017  -30.5752    6.8565 H   0  0  0  0  0  0  0  0  0  0  0  0
   -7.5035  -26.1259    4.0773 H   0  0  0  0  0  0  0  0  0  0  0  0
   -7.5035  -26.1259    4.0772 H   0  0  0  0  0  0  0  0  0  0  0  0
   -2.5989  -28.5084    3.7925 H   0  0  0  0  0  0  0  0  0  0  0  0
   -2.5989  -28.5084    3.7925 H   0  0  0  0  0  0  0  0  0  0  0  0
   -2.9044  -30.7064    5.6500 H   0  0  0  0  0  0  0  0  0  0  0  0
   -3.7319  -31.5144    4.2938 H   0  0  0  0  0  0  0  0  0  0  0  0
   -2.6842  -31.9888    7.5806 H   0  0  0  0  0  0  0  0  0  0  0  0
   -3.3678  -34.9263   11.1633 H   0  0  0  0  0  0  0  0  0  0  0  0
   -4.5378  -35.4700    9.9081 H   0  0  0  0  0  0  0  0  0  0  0  0
   -2.8201  -36.0018    9.7951 H   0  0  0  0  0  0  0  0  0  0  0  0
   -5.2287  -37.1427    7.4315 H   0  0  0  0  0  0  0  0  0  0  0  0
   -6.8966  -36.4304    7.5082 H   0  0  0  0  0  0  0  0  0  0  0  0
   -6.2402  -37.3595    8.9110 H   0  0  0  0  0  0  0  0  0  0  0  0
   -7.5630  -33.9837    4.5703 H   0  0  0  0  0  0  0  0  0  0  0  0
   -8.5626  -33.6808    6.0671 H   0  0  0  0  0  0  0  0  0  0  0  0
   -8.6247  -35.2759    5.2418 H   0  0  0  0  0  0  0  0  0  0  0  0
   -5.9633  -32.7795    4.9710 H   0  0  0  0  0  0  0  0  0  0  0  0
  2  1  2  0
  3  2  1  0
  4  3  1  0
  5  3  2  0
  6  5  1  0
  7  6  1  0
  8  1  1  0
  8  6  2  0
  9  8  1  0
 10  9  1  0
 11 10  2  0
 12 11  1  0
 13 12  1  0
 14 13  1  0
 15 12  2  0
 16 15  1  0
 17 16  1  0
 18 15  1  0
 19 18  1  0
 20 19  1  0
 21 18  2  0
 21 10  1  0
  1 22  1  0
  4 23  1  0
  4 24  1  0
  7 25  1  0
  7 26  1  0
  9 27  1  0
  9 28  1  0
 11 29  1  0
 14 30  1  0
 14 31  1  0
 14 32  1  0
 17 33  1  0
 17 34  1  0
 17 35  1  0
 20 36  1  0
 20 37  1  0
 20 38  1  0
 21 39  1  0
M  END
