
     RDKit          3D

 35 34  0  0  0  0  0  0  0  0999 V2000
   -7.6349   52.0040   63.6449 C   0  0  0  0  0  0  0  0  0  0  0  0
   -5.5682   48.2663   64.8405 P   0  0  0  0  0  0  0  0  0  0  0  0
   -2.6049   56.0273   61.8612 P   0  0  0  0  0  0  0  0  0  0  0  0
   -6.5179   47.1200   65.0956 O   0  0  0  0  0  0  0  0  0  0  0  0
   -4.9112   48.1244   63.3042 O   0  0  0  0  0  0  0  0  0  0  0  0
   -4.3371   48.2419   65.9774 O   0  0  0  0  0  0  0  0  0  0  0  0
   -1.7620   55.7514   60.6411 O   0  0  0  0  0  0  0  0  0  0  0  0
   -1.7097   55.6818   63.2394 O   0  0  0  0  0  0  0  0  0  0  0  0
   -3.0677   57.6382   61.8800 O   0  0  0  0  0  0  0  0  0  0  0  0
   -5.6447   50.8181   64.6545 C   0  0  0  0  0  0  0  0  0  0  0  0
   -6.4429   49.7032   64.9689 O   0  0  0  0  0  0  0  0  0  0  0  0
   -6.5661   52.0624   64.7235 C   0  0  2  0  0  0  0  0  0  0  0  0
   -7.1980   52.0733   65.9875 O   0  0  0  0  0  0  0  0  0  0  0  0
   -5.7796   53.3975   64.6286 C   0  0  2  0  0  0  0  0  0  0  0  0
   -6.6511   54.4765   64.8820 O   0  0  0  0  0  0  0  0  0  0  0  0
   -5.0049   53.5838   63.2986 C   0  0  2  0  0  0  0  0  0  0  0  0
   -3.8057   52.8490   63.3303 O   0  0  0  0  0  0  0  0  0  0  0  0
   -4.6885   55.0490   62.9878 C   0  0  0  0  0  0  0  0  0  0  0  0
   -3.9874   55.0602   61.7696 O   0  0  0  0  0  0  0  0  0  0  0  0
   -7.4499   51.3938   62.5561 O   0  0  0  0  0  0  0  0  0  0  0  0
   -8.8337   52.6604   63.8627 O   0  0  0  0  0  0  0  0  0  0  0  0
   -5.2191   48.9328   62.8216 H   0  0  0  0  0  0  0  0  0  0  0  0
   -4.7852   48.4340   66.8396 H   0  0  0  0  0  0  0  0  0  0  0  0
   -0.9755   56.3465   63.2378 H   0  0  0  0  0  0  0  0  0  0  0  0
   -3.3850   57.8038   62.8033 H   0  0  0  0  0  0  0  0  0  0  0  0
   -5.2061   50.7193   63.6368 H   0  0  0  0  0  0  0  0  0  0  0  0
   -4.8264   50.9230   65.4021 H   0  0  0  0  0  0  0  0  0  0  0  0
   -7.7893   51.2787   66.0689 H   0  0  0  0  0  0  0  0  0  0  0  0
   -5.0372   53.4055   65.4575 H   0  0  0  0  0  0  0  0  0  0  0  0
   -6.7287   55.0165   64.0540 H   0  0  0  0  0  0  0  0  0  0  0  0
   -5.6142   53.2058   62.4519 H   0  0  0  0  0  0  0  0  0  0  0  0
   -3.0608   53.4629   63.0957 H   0  0  0  0  0  0  0  0  0  0  0  0
   -4.1409   55.4903   63.8539 H   0  0  0  0  0  0  0  0  0  0  0  0
   -5.6231   55.6299   62.8439 H   0  0  0  0  0  0  0  0  0  0  0  0
   -9.5660   52.6523   63.1629 H   0  0  0  0  0  0  0  0  0  0  0  0
  4  2  2  0
  5  2  1  0
  6  2  1  0
  7  3  2  0
  8  3  1  0
  9  3  1  0
 11  2  1  0
 11 10  1  0
 12 10  1  0
 12  1  1  0
 12 13  1  1
 14 12  1  0
 14 15  1  0
 16 14  1  0
 16 17  1  0
 18 16  1  0
 19 18  1  0
 19  3  1  0
 20  1  2  0
 21  1  1  0
  5 22  1  0
  6 23  1  0
  8 24  1  0
  9 25  1  0
 10 26  1  0
 10 27  1  0
 13 28  1  0
 14 29  1  1
 15 30  1  0
 16 31  1  6
 17 32  1  0
 18 33  1  0
 18 34  1  0
 21 35  1  0
M  END
