
     RDKit          3D

 35 34  0  0  0  0  0  0  0  0999 V2000
  -21.8496   89.5119  126.4558 C   0  0  0  0  0  0  0  0  0  0  0  0
  -21.1458   86.3838  129.4774 P   0  0  0  0  0  0  0  0  0  0  0  0
  -28.6805   89.2907  125.6847 P   0  0  0  0  0  0  0  0  0  0  0  0
  -19.7205   86.2885  129.9651 O   0  0  0  0  0  0  0  0  0  0  0  0
  -22.0787   87.1775  130.6227 O   0  0  0  0  0  0  0  0  0  0  0  0
  -21.7602   84.8461  129.2175 O   0  0  0  0  0  0  0  0  0  0  0  0
  -29.6653   89.8407  126.6868 O   0  0  0  0  0  0  0  0  0  0  0  0
  -28.9868   87.6555  125.4647 O   0  0  0  0  0  0  0  0  0  0  0  0
  -28.8555   90.0930  124.2232 O   0  0  0  0  0  0  0  0  0  0  0  0
  -22.4434   87.2960  127.4866 C   0  0  0  0  0  0  0  0  0  0  0  0
  -21.1476   87.2488  128.0293 O   0  0  0  0  0  0  0  0  0  0  0  0
  -22.3516   88.1075  126.1735 C   0  0  2  0  0  0  0  0  0  0  0  0
  -21.3951   87.4954  125.3351 O   0  0  0  0  0  0  0  0  0  0  0  0
  -23.7051   88.1547  125.4076 C   0  0  2  0  0  0  0  0  0  0  0  0
  -23.5044   88.7691  124.1564 O   0  0  0  0  0  0  0  0  0  0  0  0
  -24.8312   88.8791  126.1900 C   0  0  2  0  0  0  0  0  0  0  0  0
  -25.0348   88.2487  127.4309 O   0  0  0  0  0  0  0  0  0  0  0  0
  -26.1567   88.9291  125.4229 C   0  0  0  0  0  0  0  0  0  0  0  0
  -27.1091   89.5388  126.2647 O   0  0  0  0  0  0  0  0  0  0  0  0
  -21.9357   90.0369  127.6015 O   0  0  0  0  0  0  0  0  0  0  0  0
  -21.2960   90.2395  125.4188 O   0  0  0  0  0  0  0  0  0  0  0  0
  -22.9997   86.8411  130.4828 H   0  0  0  0  0  0  0  0  0  0  0  0
  -21.7622   84.4195  130.1114 H   0  0  0  0  0  0  0  0  0  0  0  0
  -28.9004   87.2577  126.3675 H   0  0  0  0  0  0  0  0  0  0  0  0
  -29.4368   90.8691  124.4234 H   0  0  0  0  0  0  0  0  0  0  0  0
  -23.1387   87.7960  128.1957 H   0  0  0  0  0  0  0  0  0  0  0  0
  -22.8162   86.2707  127.2633 H   0  0  0  0  0  0  0  0  0  0  0  0
  -21.3971   87.9701  124.4620 H   0  0  0  0  0  0  0  0  0  0  0  0
  -24.0427   87.1042  125.2319 H   0  0  0  0  0  0  0  0  0  0  0  0
  -23.2252   88.0626  123.5167 H   0  0  0  0  0  0  0  0  0  0  0  0
  -24.5450   89.9327  126.3877 H   0  0  0  0  0  0  0  0  0  0  0  0
  -25.3636   87.3275  127.2589 H   0  0  0  0  0  0  0  0  0  0  0  0
  -26.4136   87.8953  125.0909 H   0  0  0  0  0  0  0  0  0  0  0  0
  -26.0434   89.5596  124.5150 H   0  0  0  0  0  0  0  0  0  0  0  0
  -20.9570   91.1825  125.5672 H   0  0  0  0  0  0  0  0  0  0  0  0
  4  2  2  0
  5  2  1  0
  6  2  1  0
  7  3  2  0
  8  3  1  0
  9  3  1  0
 11 10  1  0
 11  2  1  0
 12 10  1  0
 12  1  1  0
 12 13  1  6
 14 12  1  0
 14 15  1  0
 16 14  1  0
 16 17  1  0
 18 16  1  0
 19  3  1  0
 19 18  1  0
 20  1  2  0
 21  1  1  0
  5 22  1  0
  6 23  1  0
  8 24  1  0
  9 25  1  0
 10 26  1  0
 10 27  1  0
 13 28  1  0
 14 29  1  6
 15 30  1  0
 16 31  1  1
 17 32  1  0
 18 33  1  0
 18 34  1  0
 21 35  1  0
M  END
