
     RDKit          3D

 39 39  0  0  0  0  0  0  0  0999 V2000
   18.1886    9.8680   11.4751 C   0  0  0  0  0  0  0  0  0  0  0  0
   18.4213    8.7066   12.4381 C   0  0  0  0  0  0  0  0  0  0  0  0
   19.9032    8.5563   12.6910 C   0  0  0  0  0  0  0  0  0  0  0  0
   20.2205    7.8950   14.0227 C   0  0  0  0  0  0  0  0  0  0  0  0
   20.8390    6.5652   13.6284 C   0  0  0  0  0  0  0  0  0  0  0  0
   20.2183    5.3798   14.2459 C   0  0  0  0  0  0  0  0  0  0  0  0
   17.2679    3.5522   14.0470 C   0  0  0  0  0  0  0  0  0  0  0  0
   12.9547    1.3497   16.0513 O   0  0  0  0  0  0  0  0  0  0  0  0
   15.1191    2.4383   14.3091 C   0  0  0  0  0  0  0  0  0  0  0  0
   14.7514   -0.2640   16.5841 O   0  0  0  0  0  0  0  0  0  0  0  0
   16.0201    3.1567   13.5275 C   0  0  0  0  0  0  0  0  0  0  0  0
   14.3978    1.7803   18.1974 N   0  0  0  0  0  0  0  0  0  0  0  0
   15.4467    2.1060   15.6263 C   0  0  0  0  0  0  0  0  0  0  0  0
   17.6071    3.1801   15.3619 C   0  0  0  0  0  0  0  0  0  0  0  0
   16.6885    2.4796   16.1530 C   0  0  0  0  0  0  0  0  0  0  0  0
   18.2057    4.2987   13.1689 C   0  0  0  0  0  0  0  0  0  0  0  0
   19.5842    4.3945   13.4462 N   0  0  0  0  0  0  0  0  0  0  0  0
   17.8510    4.6232   12.0118 O   0  0  0  0  0  0  0  0  0  0  0  0
   14.3407    1.1801   16.5943 S   0  0  0  0  0  0  0  0  0  0  0  0
   19.0897   10.0413   10.8482 H   0  0  0  0  0  0  0  0  0  0  0  0
   17.3128    9.6694   10.8204 H   0  0  0  0  0  0  0  0  0  0  0  0
   17.9839   10.7915   12.0567 H   0  0  0  0  0  0  0  0  0  0  0  0
   17.8901    8.8940   13.3965 H   0  0  0  0  0  0  0  0  0  0  0  0
   18.0057    7.7838   11.9770 H   0  0  0  0  0  0  0  0  0  0  0  0
   20.3828    9.5602   12.6391 H   0  0  0  0  0  0  0  0  0  0  0  0
   20.3184    7.9351   11.8631 H   0  0  0  0  0  0  0  0  0  0  0  0
   19.2837    7.7363   14.5977 H   0  0  0  0  0  0  0  0  0  0  0  0
   20.9323    8.5079   14.6176 H   0  0  0  0  0  0  0  0  0  0  0  0
   21.9171    6.5886   13.9076 H   0  0  0  0  0  0  0  0  0  0  0  0
   20.7998    6.3724   12.5320 H   0  0  0  0  0  0  0  0  0  0  0  0
   19.4929    5.7400   15.0081 H   0  0  0  0  0  0  0  0  0  0  0  0
   21.0099    4.8619   14.8318 H   0  0  0  0  0  0  0  0  0  0  0  0
   14.1679    2.1485   13.8821 H   0  0  0  0  0  0  0  0  0  0  0  0
   15.7406    3.4017   12.5102 H   0  0  0  0  0  0  0  0  0  0  0  0
   15.2969    1.4518   18.6159 H   0  0  0  0  0  0  0  0  0  0  0  0
   13.6294    1.3113   18.7273 H   0  0  0  0  0  0  0  0  0  0  0  0
   18.5681    3.4448   15.7812 H   0  0  0  0  0  0  0  0  0  0  0  0
   16.9553    2.2124   17.1679 H   0  0  0  0  0  0  0  0  0  0  0  0
   20.2111    3.8919   12.7774 H   0  0  0  0  0  0  0  0  0  0  0  0
  2  1  1  0
  3  2  1  0
  4  3  1  0
  5  4  1  0
  6  5  1  0
 11  9  1  0
 11  7  2  0
 13  9  2  0
 14  7  1  0
 15 13  1  0
 15 14  2  0
 16  7  1  0
 17 16  1  0
 17  6  1  0
 18 16  2  0
 19 13  1  0
 19 12  1  0
 19 10  2  0
 19  8  2  0
  1 20  1  0
  1 21  1  0
  1 22  1  0
  2 23  1  0
  2 24  1  0
  3 25  1  0
  3 26  1  0
  4 27  1  0
  4 28  1  0
  5 29  1  0
  5 30  1  0
  6 31  1  0
  6 32  1  0
  9 33  1  0
 11 34  1  0
 12 35  1  0
 12 36  1  0
 14 37  1  0
 15 38  1  0
 17 39  1  0
M  END
