
     RDKit          3D

 42 44  0  0  0  0  0  0  0  0999 V2000
   17.7606  116.1961   64.3160 P   0  0  0  0  0  0  0  0  0  0  0  0
   19.8668  110.6235   63.0893 P   0  0  0  0  0  0  0  0  0  0  0  0
   16.7660  116.1501   63.1840 O   0  0  0  0  0  0  0  0  0  0  0  0
   18.6817  117.5944   64.2909 O   0  0  0  0  0  0  0  0  0  0  0  0
   16.9545  116.0785   65.7776 O   0  0  0  0  0  0  0  0  0  0  0  0
   19.1745  111.4478   64.1461 O   0  0  0  0  0  0  0  0  0  0  0  0
   18.8023  110.1184   61.8936 O   0  0  0  0  0  0  0  0  0  0  0  0
   20.6007  109.2965   63.8003 O   0  0  0  0  0  0  0  0  0  0  0  0
   20.7032  112.7760   62.0118 C   0  0  0  0  0  0  0  0  0  0  0  0
   21.1141  111.4846   62.3701 O   0  0  0  0  0  0  0  0  0  0  0  0
   20.2993  113.4368   63.3244 C   0  0  1  0  0  0  0  0  0  0  0  0
   21.4420  113.5604   64.1650 O   0  0  0  0  0  0  0  0  0  0  0  0
   19.6499  114.8159   63.1877 C   0  0  1  0  0  0  0  0  0  0  0  0
   18.7860  114.8706   64.3039 O   0  0  0  0  0  0  0  0  0  0  0  0
   20.8785  115.6915   63.3880 C   0  0  1  0  0  0  0  0  0  0  0  0
   20.5897  117.0170   63.7336 O   0  0  0  0  0  0  0  0  0  0  0  0
   21.5395  114.9212   64.5170 C   0  0  2  0  0  0  0  0  0  0  0  0
   24.6354  118.5717   66.3881 N   0  0  0  0  0  0  0  0  0  0  0  0
   23.2668  118.5421   66.3330 C   0  0  0  0  0  0  0  0  0  0  0  0
   22.6112  117.4721   65.7944 N   0  0  0  0  0  0  0  0  0  0  0  0
   23.3607  116.4353   65.3435 C   0  0  0  0  0  0  0  0  0  0  0  0
   24.7140  116.4290   65.3959 C   0  0  0  0  0  0  0  0  0  0  0  0
   25.3871  117.5295   65.9298 C   0  0  0  0  0  0  0  0  0  0  0  0
   26.8046  117.5736   66.0389 N   0  0  0  0  0  0  0  0  0  0  0  0
   25.1991  115.2839   64.8684 N   0  0  0  0  0  0  0  0  0  0  0  0
   24.0715  114.6240   64.4827 C   0  0  0  0  0  0  0  0  0  0  0  0
   22.9301  115.3064   64.7618 N   0  0  0  0  0  0  0  0  0  0  0  0
   19.0900  117.6130   63.3888 H   0  0  0  0  0  0  0  0  0  0  0  0
   16.0063  115.9287   65.5334 H   0  0  0  0  0  0  0  0  0  0  0  0
   19.3699  109.9397   61.1021 H   0  0  0  0  0  0  0  0  0  0  0  0
   21.0240  109.6502   64.6231 H   0  0  0  0  0  0  0  0  0  0  0  0
   21.5305  113.3523   61.5400 H   0  0  0  0  0  0  0  0  0  0  0  0
   19.8206  112.7316   61.3351 H   0  0  0  0  0  0  0  0  0  0  0  0
   19.5805  112.7392   63.8170 H   0  0  0  0  0  0  0  0  0  0  0  0
   19.1420  114.9628   62.2075 H   0  0  0  0  0  0  0  0  0  0  0  0
   21.5005  115.6697   62.4624 H   0  0  0  0  0  0  0  0  0  0  0  0
   21.2717  117.2885   64.4017 H   0  0  0  0  0  0  0  0  0  0  0  0
   20.9632  115.0804   65.4588 H   0  0  0  0  0  0  0  0  0  0  0  0
   22.6992  119.3840   66.7047 H   0  0  0  0  0  0  0  0  0  0  0  0
   27.2637  118.2915   66.6423 H   0  0  0  0  0  0  0  0  0  0  0  0
   27.4035  116.8938   65.5197 H   0  0  0  0  0  0  0  0  0  0  0  0
   24.0888  113.6466   64.0185 H   0  0  0  0  0  0  0  0  0  0  0  0
  3  1  2  0
  4  1  1  0
  5  1  1  0
  6  2  2  0
  7  2  1  0
  8  2  1  0
 10  9  1  0
 10  2  1  0
 11  9  1  0
 12 11  1  0
 13 11  1  0
 13 14  1  0
 14  1  1  0
 15 13  1  0
 15 16  1  0
 17 12  1  0
 17 15  1  0
 19 18  2  0
 20 19  1  0
 21 20  2  0
 22 21  1  0
 23 22  2  0
 23 18  1  0
 24 23  1  0
 25 22  1  0
 26 25  2  0
 17 27  1  0
 27 26  1  0
 27 21  1  0
  4 28  1  0
  5 29  1  0
  7 30  1  0
  8 31  1  0
  9 32  1  0
  9 33  1  0
 11 34  1  1
 13 35  1  6
 15 36  1  6
 16 37  1  0
 17 38  1  1
 19 39  1  0
 24 40  1  0
 24 41  1  0
 26 42  1  0
M  END
