
     RDKit          3D

 83 86  0  0  0  0  0  0  0  0999 V2000
   23.8711   30.8649   -1.7587 C   0  0  0  0  0  0  0  0  0  0  0  0
   17.5733   19.2323    3.7250 C   0  0  0  0  0  0  0  0  0  0  0  0
   25.8843   20.1745   -1.1091 C   0  0  0  0  0  0  0  0  0  0  0  0
   25.6670   16.7058   -0.0575 C   0  0  0  0  0  0  0  0  0  0  0  0
   17.0781   21.9283    0.0181 C   0  0  0  0  0  0  0  0  0  0  0  0
   18.0252   22.6464   -0.7187 C   0  0  0  0  0  0  0  0  0  0  0  0
   16.8788   22.2185    1.3720 C   0  0  0  0  0  0  0  0  0  0  0  0
   18.7769   23.6566   -0.1054 C   0  0  0  0  0  0  0  0  0  0  0  0
   17.6255   23.2297    1.9943 C   0  0  0  0  0  0  0  0  0  0  0  0
   19.5631   15.9119    6.4014 C   0  0  0  0  0  0  0  0  0  0  0  0
   20.0440   18.1666    7.1766 C   0  0  0  0  0  0  0  0  0  0  0  0
   19.1814   16.4182    5.1615 C   0  0  0  0  0  0  0  0  0  0  0  0
   19.7069   18.6775    5.9296 C   0  0  0  0  0  0  0  0  0  0  0  0
   21.3949   20.8725    1.1916 C   0  0  0  0  0  0  0  0  0  0  0  0
   22.9446   19.0316    0.9397 C   0  0  0  0  0  0  0  0  0  0  0  0
   23.5948   21.2972    0.3180 C   0  0  0  0  0  0  0  0  0  0  0  0
   24.1146   28.2519    1.0631 C   0  0  0  0  0  0  0  0  0  0  0  0
   19.3351   25.0970    1.9441 C   0  0  0  0  0  0  0  0  0  0  0  0
   23.0586   26.3193    2.2431 C   0  0  0  0  0  0  0  0  0  0  0  0
   20.5341   17.4490    1.4703 O   0  0  0  0  0  0  0  0  0  0  0  0
   22.3721   23.8477   -0.4301 O   0  0  0  0  0  0  0  0  0  0  0  0
   25.5151   18.1178    2.2166 O   0  0  0  0  0  0  0  0  0  0  0  0
   27.4733   18.5324    0.7856 O   0  0  0  0  0  0  0  0  0  0  0  0
   25.5710   29.1199   -1.4881 O   0  0  0  0  0  0  0  0  0  0  0  0
   21.6059   25.3347    3.9315 O   0  0  0  0  0  0  0  0  0  0  0  0
   20.6861   18.6225    1.9096 C   0  0  0  0  0  0  0  0  0  0  0  0
   22.0373   23.1803    0.5839 C   0  0  0  0  0  0  0  0  0  0  0  0
   19.9673   16.7904    7.4075 C   0  0  0  0  0  0  0  0  0  0  0  0
   18.5826   23.9610    1.2617 C   0  0  0  0  0  0  0  0  0  0  0  0
   21.6920   19.5121    1.3323 C   0  0  0  0  0  0  0  0  0  0  0  0
   22.3425   21.7611    0.6793 C   0  0  0  0  0  0  0  0  0  0  0  0
   19.2429   17.8050    4.9220 C   0  0  0  0  0  0  0  0  0  0  0  0
   23.9059   19.9399    0.4374 C   0  0  0  0  0  0  0  0  0  0  0  0
   23.7338   29.0457    0.0051 C   0  0  0  0  0  0  0  0  0  0  0  0
   24.6246   29.9134   -0.8186 C   0  0  2  0  0  0  0  0  0  0  0  0
   18.8086   18.3460    3.5865 C   0  0  2  0  0  0  0  0  0  0  0  0
   21.6100   25.9983    2.6869 C   0  0  2  0  0  0  0  0  0  0  0  0
   20.8491   25.1480    1.6400 C   0  0  1  0  0  0  0  0  0  0  0  0
   22.5164   28.6437   -0.4125 N   0  0  0  0  0  0  0  0  0  0  0  0
   22.1402   27.6653    0.3969 N   0  0  0  0  0  0  0  0  0  0  0  0
   19.8894   19.1124    2.9887 N   0  0  0  0  0  0  0  0  0  0  0  0
   21.3659   23.7926    1.6752 N   0  0  0  0  0  0  0  0  0  0  0  0
   25.1953   19.5007   -0.0044 N   0  0  0  0  0  0  0  0  0  0  0  0
   23.0858   27.4212    1.2897 N   0  0  0  0  0  0  0  0  0  0  0  0
   26.0045   18.2214    0.8016 S   0  0  0  0  0  0  0  0  0  0  0  0
   20.3169   16.2990    8.6132 F   0  0  0  0  0  0  0  0  0  0  0  0
   24.5982   31.4379   -2.3722 H   0  0  0  0  0  0  0  0  0  0  0  0
   23.2609   31.5873   -1.1765 H   0  0  0  0  0  0  0  0  0  0  0  0
   23.2059   30.2891   -2.4370 H   0  0  0  0  0  0  0  0  0  0  0  0
   17.8006   20.1568    4.2978 H   0  0  0  0  0  0  0  0  0  0  0  0
   17.2109   19.5167    2.7156 H   0  0  0  0  0  0  0  0  0  0  0  0
   16.7599   18.6783    4.2409 H   0  0  0  0  0  0  0  0  0  0  0  0
   26.6651   19.5161   -1.5449 H   0  0  0  0  0  0  0  0  0  0  0  0
   26.3710   21.1024   -0.7431 H   0  0  0  0  0  0  0  0  0  0  0  0
   25.1635   20.4185   -1.9186 H   0  0  0  0  0  0  0  0  0  0  0  0
   26.0345   16.7848   -1.1013 H   0  0  0  0  0  0  0  0  0  0  0  0
   24.5781   16.5026   -0.0709 H   0  0  0  0  0  0  0  0  0  0  0  0
   26.1886   15.8691    0.4511 H   0  0  0  0  0  0  0  0  0  0  0  0
   16.4966   21.1506   -0.4597 H   0  0  0  0  0  0  0  0  0  0  0  0
   18.1750   22.4235   -1.7671 H   0  0  0  0  0  0  0  0  0  0  0  0
   16.1316   21.6769    1.9361 H   0  0  0  0  0  0  0  0  0  0  0  0
   19.4872   24.2170   -0.6987 H   0  0  0  0  0  0  0  0  0  0  0  0
   17.4450   23.4477    3.0395 H   0  0  0  0  0  0  0  0  0  0  0  0
   19.5212   14.8468    6.5902 H   0  0  0  0  0  0  0  0  0  0  0  0
   20.3749   18.8325    7.9633 H   0  0  0  0  0  0  0  0  0  0  0  0
   18.8416   15.7347    4.3934 H   0  0  0  0  0  0  0  0  0  0  0  0
   19.7658   19.7453    5.7634 H   0  0  0  0  0  0  0  0  0  0  0  0
   20.4081   21.2410    1.4473 H   0  0  0  0  0  0  0  0  0  0  0  0
   23.1631   17.9775    1.0265 H   0  0  0  0  0  0  0  0  0  0  0  0
   24.3304   22.0052   -0.0417 H   0  0  0  0  0  0  0  0  0  0  0  0
   25.0706   28.2220    1.5696 H   0  0  0  0  0  0  0  0  0  0  0  0
   19.1902   25.0172    3.0441 H   0  0  0  0  0  0  0  0  0  0  0  0
   18.8740   26.0586    1.6318 H   0  0  0  0  0  0  0  0  0  0  0  0
   23.5444   25.4221    1.8022 H   0  0  0  0  0  0  0  0  0  0  0  0
   23.6590   26.6087    3.1336 H   0  0  0  0  0  0  0  0  0  0  0  0
   25.0819   28.6027   -2.1811 H   0  0  0  0  0  0  0  0  0  0  0  0
   22.3407   24.6667    3.9403 H   0  0  0  0  0  0  0  0  0  0  0  0
   25.1883   30.5530   -0.1058 H   0  0  0  0  0  0  0  0  0  0  0  0
   18.5205   17.5082    2.9130 H   0  0  0  0  0  0  0  0  0  0  0  0
   21.0699   26.9613    2.8219 H   0  0  0  0  0  0  0  0  0  0  0  0
   20.9852   25.6015    0.6333 H   0  0  0  0  0  0  0  0  0  0  0  0
   20.1598   20.0113    3.4490 H   0  0  0  0  0  0  0  0  0  0  0  0
   21.1836   23.2185    2.5309 H   0  0  0  0  0  0  0  0  0  0  0  0
  6  5  2  0
  7  5  1  0
  8  6  1  0
  9  7  2  0
 12 10  2  0
 13 11  1  0
 26 20  2  0
 27 21  2  0
 28 11  2  0
 28 10  1  0
 29 18  1  0
 29  9  1  0
 29  8  2  0
 30 26  1  0
 30 14  2  0
 30 15  1  0
 31 14  1  0
 31 27  1  0
 31 16  2  0
 32 12  1  0
 32 13  2  0
 33 15  2  0
 33 16  1  0
 34 17  2  0
 35 34  1  0
 35 24  1  0
 35  1  1  0
 36 32  1  0
 36  2  1  0
 37 25  1  0
 37 19  1  0
 38 37  1  0
 38 18  1  0
 39 34  1  0
 40 39  2  0
 41 36  1  0
 41 26  1  0
 42 38  1  0
 42 27  1  0
 43 33  1  0
 43  3  1  0
 44 40  1  0
 44 19  1  0
 44 17  1  0
 45 43  1  0
 45 23  2  0
 45  4  1  0
 45 22  2  0
 46 28  1  0
  1 47  1  0
  1 48  1  0
  1 49  1  0
  2 50  1  0
  2 51  1  0
  2 52  1  0
  3 53  1  0
  3 54  1  0
  3 55  1  0
  4 56  1  0
  4 57  1  0
  4 58  1  0
  5 59  1  0
  6 60  1  0
  7 61  1  0
  8 62  1  0
  9 63  1  0
 10 64  1  0
 11 65  1  0
 12 66  1  0
 13 67  1  0
 14 68  1  0
 15 69  1  0
 16 70  1  0
 17 71  1  0
 18 72  1  0
 18 73  1  0
 19 74  1  0
 19 75  1  0
 24 76  1  0
 25 77  1  0
 35 78  1  1
 36 79  1  6
 37 80  1  1
 38 81  1  6
 41 82  1  0
 42 83  1  0
M  END
