
     RDKit          3D

 16 16  0  0  0  0  0  0  0  0999 V2000
   10.9127   -1.7024   39.7705 C   0  0  0  0  0  0  0  0  0  0  0  0
   11.0864   -1.6547   38.3865 C   0  0  0  0  0  0  0  0  0  0  0  0
   10.2313   -2.3734   37.5517 C   0  0  0  0  0  0  0  0  0  0  0  0
    9.2050   -3.1479   38.1000 C   0  0  0  0  0  0  0  0  0  0  0  0
    9.0302   -3.2053   39.4866 C   0  0  0  0  0  0  0  0  0  0  0  0
    9.8891   -2.4870   40.3420 C   0  0  0  0  0  0  0  0  0  0  0  0
    9.7097   -2.5535   41.8158 C   0  0  0  0  0  0  0  0  0  0  0  0
    9.9793   -3.6147   42.4389 O   0  0  0  0  0  0  0  0  0  0  0  0
    9.2474   -1.4280   42.5598 N   0  0  0  0  0  0  0  0  0  0  0  0
   11.5718   -1.0973   40.3739 H   0  0  0  0  0  0  0  0  0  0  0  0
   11.8748   -1.0481   37.9594 H   0  0  0  0  0  0  0  0  0  0  0  0
   10.3621   -2.3311   36.4781 H   0  0  0  0  0  0  0  0  0  0  0  0
    8.5434   -3.7048   37.4491 H   0  0  0  0  0  0  0  0  0  0  0  0
    8.2310   -3.8156   39.8882 H   0  0  0  0  0  0  0  0  0  0  0  0
    9.8204   -0.5551   42.5790 H   0  0  0  0  0  0  0  0  0  0  0  0
    8.2926   -1.3792   42.9742 H   0  0  0  0  0  0  0  0  0  0  0  0
  2  1  2  0
  3  2  1  0
  4  3  2  0
  5  4  1  0
  6  5  2  0
  6  1  1  0
  7  6  1  0
  8  7  2  0
  9  7  1  0
  1 10  1  0
  2 11  1  0
  3 12  1  0
  4 13  1  0
  5 14  1  0
  9 15  1  0
  9 16  1  0
M  END
