
     RDKit          3D

 16 16  0  0  0  0  0  0  0  0999 V2000
   11.4405   -2.1326   37.7925 C   0  0  0  0  0  0  0  0  0  0  0  0
   11.6142   -2.0848   36.4085 C   0  0  0  0  0  0  0  0  0  0  0  0
   10.7591   -2.8035   35.5737 C   0  0  0  0  0  0  0  0  0  0  0  0
    9.7328   -3.5780   36.1220 C   0  0  0  0  0  0  0  0  0  0  0  0
    9.5580   -3.6355   37.5086 C   0  0  0  0  0  0  0  0  0  0  0  0
   10.4169   -2.9172   38.3640 C   0  0  0  0  0  0  0  0  0  0  0  0
   10.2375   -2.9836   39.8378 C   0  0  0  0  0  0  0  0  0  0  0  0
   11.1845   -2.6658   40.6055 O   0  0  0  0  0  0  0  0  0  0  0  0
    8.9997   -3.3895   40.4184 N   0  0  0  0  0  0  0  0  0  0  0  0
   12.0996   -1.5274   38.3959 H   0  0  0  0  0  0  0  0  0  0  0  0
   12.4026   -1.4782   35.9815 H   0  0  0  0  0  0  0  0  0  0  0  0
   10.8899   -2.7613   34.5001 H   0  0  0  0  0  0  0  0  0  0  0  0
    9.0712   -4.1349   35.4711 H   0  0  0  0  0  0  0  0  0  0  0  0
    8.7588   -4.2457   37.9103 H   0  0  0  0  0  0  0  0  0  0  0  0
    8.5592   -4.2857   40.1130 H   0  0  0  0  0  0  0  0  0  0  0  0
    8.5767   -2.9073   41.2395 H   0  0  0  0  0  0  0  0  0  0  0  0
  2  1  2  0
  3  2  1  0
  4  3  2  0
  5  4  1  0
  6  5  2  0
  6  1  1  0
  7  6  1  0
  8  7  2  0
  9  7  1  0
  1 10  1  0
  2 11  1  0
  3 12  1  0
  4 13  1  0
  5 14  1  0
  9 15  1  0
  9 16  1  0
M  END
