
     RDKit          3D

 49 51  0  0  0  0  0  0  0  0999 V2000
  -11.6968    2.1728    1.8087 P   0  0  1  0  0  0  0  0  0  0  0  0
   -9.1749    3.1242    3.0606 P   0  0  1  0  0  0  0  0  0  0  0  0
   -6.6482    1.9963    3.4140 P   0  0  0  0  0  0  0  0  0  0  0  0
  -12.1592    0.4580   -0.0183 C   0  0  0  0  0  0  0  0  0  0  0  0
  -12.2806    0.6608    1.3612 O   0  0  0  0  0  0  0  0  0  0  0  0
  -12.2915   -1.0408   -0.2641 C   0  0  1  0  0  0  0  0  0  0  0  0
  -11.2036   -1.7231    0.3131 O   0  0  0  0  0  0  0  0  0  0  0  0
  -13.5416   -1.6718    0.3686 C   0  0  1  0  0  0  0  0  0  0  0  0
  -14.7053   -1.5112   -0.4053 O   0  0  0  0  0  0  0  0  0  0  0  0
  -13.1200   -3.1251    0.5647 C   0  0  1  0  0  0  0  0  0  0  0  0
  -13.7534   -3.9659   -0.3674 O   0  0  0  0  0  0  0  0  0  0  0  0
  -11.6052   -3.0718    0.3010 C   0  0  2  0  0  0  0  0  0  0  0  0
  -10.2765   -4.1451    5.2333 N   0  0  0  0  0  0  0  0  0  0  0  0
  -12.2525    3.2630    0.9217 O   0  0  0  0  0  0  0  0  0  0  0  0
   -9.7499    4.5215    3.0113 O   0  0  0  0  0  0  0  0  0  0  0  0
   -6.6016    2.0864    4.9217 O   0  0  0  0  0  0  0  0  0  0  0  0
  -11.2656   -3.3034    4.7945 C   0  0  0  0  0  0  0  0  0  0  0  0
  -12.2091    2.3834    3.3928 O   0  0  0  0  0  0  0  0  0  0  0  0
   -9.4755    2.4234    4.5617 O   0  0  0  0  0  0  0  0  0  0  0  0
   -5.1087    2.2230    2.7922 O   0  0  0  0  0  0  0  0  0  0  0  0
   -9.8937    2.1346    1.7341 C   0  0  0  0  0  0  0  0  0  0  0  0
  -11.5092   -3.1397    3.4589 N   0  0  0  0  0  0  0  0  0  0  0  0
   -7.5296    3.2721    2.7472 O   0  0  0  0  0  0  0  0  0  0  0  0
   -7.2258    0.4945    2.9271 O   0  0  0  0  0  0  0  0  0  0  0  0
  -10.7484   -3.8497    2.5892 C   0  0  0  0  0  0  0  0  0  0  0  0
   -9.7764   -4.7028    2.9992 C   0  0  0  0  0  0  0  0  0  0  0  0
   -9.5146   -4.8571    4.3556 C   0  0  0  0  0  0  0  0  0  0  0  0
   -8.4752   -5.7043    4.8290 N   0  0  0  0  0  0  0  0  0  0  0  0
   -9.1701   -5.2799    1.9432 N   0  0  0  0  0  0  0  0  0  0  0  0
   -9.8242   -4.7322    0.8875 C   0  0  0  0  0  0  0  0  0  0  0  0
  -10.8038   -3.8595    1.2447 N   0  0  0  0  0  0  0  0  0  0  0  0
  -11.1740    0.7890   -0.4187 H   0  0  0  0  0  0  0  0  0  0  0  0
  -12.9754    0.9937   -0.5511 H   0  0  0  0  0  0  0  0  0  0  0  0
  -12.2797   -1.2043   -1.3683 H   0  0  0  0  0  0  0  0  0  0  0  0
  -13.7377   -1.2417    1.3745 H   0  0  0  0  0  0  0  0  0  0  0  0
  -15.4875   -1.7520    0.1564 H   0  0  0  0  0  0  0  0  0  0  0  0
  -13.3613   -3.4533    1.6012 H   0  0  0  0  0  0  0  0  0  0  0  0
  -13.5412   -4.8962   -0.0934 H   0  0  0  0  0  0  0  0  0  0  0  0
  -11.4138   -3.4663   -0.7265 H   0  0  0  0  0  0  0  0  0  0  0  0
  -11.8545   -2.7523    5.5145 H   0  0  0  0  0  0  0  0  0  0  0  0
  -12.0477    1.5108    3.8328 H   0  0  0  0  0  0  0  0  0  0  0  0
  -10.4107    2.1004    4.5188 H   0  0  0  0  0  0  0  0  0  0  0  0
   -5.2065    2.0804    1.8168 H   0  0  0  0  0  0  0  0  0  0  0  0
   -9.5514    1.0856    1.8395 H   0  0  0  0  0  0  0  0  0  0  0  0
   -9.5557    2.5257    0.7524 H   0  0  0  0  0  0  0  0  0  0  0  0
   -7.0959   -0.0936    3.7133 H   0  0  0  0  0  0  0  0  0  0  0  0
   -8.4277   -6.7081    4.5450 H   0  0  0  0  0  0  0  0  0  0  0  0
   -7.7431   -5.3281    5.4715 H   0  0  0  0  0  0  0  0  0  0  0  0
   -9.5764   -4.9664   -0.1401 H   0  0  0  0  0  0  0  0  0  0  0  0
  5  4  1  0
  1  5  1  6
  6  4  1  0
  7  6  1  0
  8  6  1  0
  8  9  1  0
 10  8  1  0
 10 11  1  0
 12 10  1  0
 12  7  1  0
 14  1  2  0
 15  2  2  0
 16  3  2  0
 17 13  2  0
 18  1  1  0
  2 19  1  1
 20  3  1  0
 21  1  1  0
 21  2  1  0
 22 17  1  0
 23  3  1  0
 23  2  1  0
 24  3  1  0
 25 22  2  0
 26 25  1  0
 27 26  2  0
 27 13  1  0
 28 27  1  0
 29 26  1  0
 30 29  2  0
 12 31  1  0
 31 30  1  0
 31 25  1  0
  4 32  1  0
  4 33  1  0
  6 34  1  6
  8 35  1  1
  9 36  1  0
 10 37  1  1
 11 38  1  0
 12 39  1  6
 17 40  1  0
 18 41  1  0
 19 42  1  0
 20 43  1  0
 21 44  1  0
 21 45  1  0
 24 46  1  0
 28 47  1  0
 28 48  1  0
 30 49  1  0
M  END
