
     RDKit          3D

 41 43  0  0  0  0  0  0  0  0999 V2000
   42.3447   45.6822   33.7736 S   0  0  0  0  0  0  0  0  0  0  0  0
   39.9665   44.3391   34.3174 P   0  0  2  0  0  0  0  0  0  0  0  0
   39.6407   44.3139   36.8224 C   0  0  0  0  0  0  0  0  0  0  0  0
   40.6595   44.3840   35.8484 O   0  0  0  0  0  0  0  0  0  0  0  0
   39.9814   43.1404   37.7334 C   0  0  1  0  0  0  0  0  0  0  0  0
   41.2269   43.3850   38.3635 O   0  0  0  0  0  0  0  0  0  0  0  0
   38.9252   42.8869   38.8053 C   0  0  1  0  0  0  0  0  0  0  0  0
   37.9496   41.9784   38.3616 O   0  0  0  0  0  0  0  0  0  0  0  0
   39.7732   42.3419   39.9425 C   0  0  1  0  0  0  0  0  0  0  0  0
   39.9666   40.9498   39.7870 O   0  0  0  0  0  0  0  0  0  0  0  0
   41.1246   43.0096   39.7187 C   0  0  2  0  0  0  0  0  0  0  0  0
   39.7595   47.8357   41.1375 N   0  0  0  0  0  0  0  0  0  0  0  0
   38.4685   44.5228   34.4274 O   0  0  0  0  0  0  0  0  0  0  0  0
   42.8032   44.7510   34.8560 O   0  0  0  0  0  0  0  0  0  0  0  0
   39.0637   46.9631   40.3428 C   0  0  0  0  0  0  0  0  0  0  0  0
   40.3567   42.8627   33.6157 O   0  0  0  0  0  0  0  0  0  0  0  0
   42.8054   47.0894   34.0172 O   0  0  0  0  0  0  0  0  0  0  0  0
   39.5471   45.7093   40.0991 N   0  0  0  0  0  0  0  0  0  0  0  0
   40.7018   45.6428   33.5517 O   0  0  0  0  0  0  0  0  0  0  0  0
   42.9244   45.1647   32.3034 O   0  0  0  0  0  0  0  0  0  0  0  0
   40.7193   45.3531   40.6784 C   0  0  0  0  0  0  0  0  0  0  0  0
   41.4231   46.1958   41.4743 C   0  0  0  0  0  0  0  0  0  0  0  0
   40.9461   47.4829   41.7137 C   0  0  0  0  0  0  0  0  0  0  0  0
   41.6605   48.4141   42.5178 N   0  0  0  0  0  0  0  0  0  0  0  0
   42.5518   45.6019   41.9078 N   0  0  0  0  0  0  0  0  0  0  0  0
   42.4861   44.3714   41.3347 C   0  0  0  0  0  0  0  0  0  0  0  0
   41.3717   44.1788   40.5787 N   0  0  0  0  0  0  0  0  0  0  0  0
   38.6411   44.1158   36.3701 H   0  0  0  0  0  0  0  0  0  0  0  0
   39.6087   45.2514   37.4194 H   0  0  0  0  0  0  0  0  0  0  0  0
   40.0873   42.2242   37.1079 H   0  0  0  0  0  0  0  0  0  0  0  0
   38.4261   43.8298   39.1071 H   0  0  0  0  0  0  0  0  0  0  0  0
   37.4029   41.7431   39.1562 H   0  0  0  0  0  0  0  0  0  0  0  0
   39.3464   42.5858   40.9434 H   0  0  0  0  0  0  0  0  0  0  0  0
   39.1568   40.6012   39.3311 H   0  0  0  0  0  0  0  0  0  0  0  0
   41.9279   42.2636   39.9178 H   0  0  0  0  0  0  0  0  0  0  0  0
   38.1287   47.2725   39.8967 H   0  0  0  0  0  0  0  0  0  0  0  0
   39.7800   42.8051   32.8126 H   0  0  0  0  0  0  0  0  0  0  0  0
   43.2760   45.9802   31.8643 H   0  0  0  0  0  0  0  0  0  0  0  0
   42.1233   49.2405   42.0786 H   0  0  0  0  0  0  0  0  0  0  0  0
   41.7324   48.2869   43.5518 H   0  0  0  0  0  0  0  0  0  0  0  0
   43.2654   43.6290   41.4512 H   0  0  0  0  0  0  0  0  0  0  0  0
  4  3  1  0
  2  4  1  1
  5  3  1  0
  6  5  1  0
  7  5  1  0
  7  8  1  0
  9  7  1  0
  9 10  1  0
 11  9  1  0
 11  6  1  0
 13  2  2  0
 14  1  2  0
 15 12  2  0
 16  2  1  0
 17  1  2  0
 18 15  1  0
 19  2  1  0
 19  1  1  0
  1 20  1  0
 21 18  2  0
 22 21  1  0
 23 22  2  0
 23 12  1  0
 24 23  1  0
 25 22  1  0
 26 25  2  0
 11 27  1  0
 27 26  1  0
 27 21  1  0
  3 28  1  0
  3 29  1  0
  5 30  1  6
  7 31  1  1
  8 32  1  0
  9 33  1  1
 10 34  1  0
 11 35  1  1
 15 36  1  0
 16 37  1  0
 20 38  1  0
 24 39  1  0
 24 40  1  0
 26 41  1  0
M  END
