
     RDKit          3D

 41 43  0  0  0  0  0  0  0  0999 V2000
   41.3315   45.7576   33.4154 S   0  0  0  0  0  0  0  0  0  0  0  0
   41.5150   43.3327   34.7724 P   0  0  2  0  0  0  0  0  0  0  0  0
   40.5404   43.7371   37.0677 C   0  0  0  0  0  0  0  0  0  0  0  0
   41.7815   43.6494   36.4019 O   0  0  0  0  0  0  0  0  0  0  0  0
   40.6050   42.7766   38.2495 C   0  0  1  0  0  0  0  0  0  0  0  0
   41.6086   43.2117   39.1502 O   0  0  0  0  0  0  0  0  0  0  0  0
   39.2818   42.6601   39.0007 C   0  0  1  0  0  0  0  0  0  0  0  0
   38.4852   41.6254   38.4821 O   0  0  0  0  0  0  0  0  0  0  0  0
   39.7609   42.3898   40.4172 C   0  0  1  0  0  0  0  0  0  0  0  0
   39.9997   41.0081   40.5994 O   0  0  0  0  0  0  0  0  0  0  0  0
   41.1145   43.0884   40.4650 C   0  0  2  0  0  0  0  0  0  0  0  0
   40.0059   48.1704   40.1307 N   0  0  0  0  0  0  0  0  0  0  0  0
   40.8126   42.0013   34.6174 O   0  0  0  0  0  0  0  0  0  0  0  0
   42.1787   45.1526   32.3358 O   0  0  0  0  0  0  0  0  0  0  0  0
   39.6587   47.1736   39.2573 C   0  0  0  0  0  0  0  0  0  0  0  0
   43.0043   43.3384   33.9937 O   0  0  0  0  0  0  0  0  0  0  0  0
   42.1296   46.6604   34.3097 O   0  0  0  0  0  0  0  0  0  0  0  0
   39.9964   45.8757   39.5150 N   0  0  0  0  0  0  0  0  0  0  0  0
   40.5309   44.6161   34.3132 O   0  0  0  0  0  0  0  0  0  0  0  0
   40.0871   46.6251   32.7341 O   0  0  0  0  0  0  0  0  0  0  0  0
   40.6656   45.6057   40.6621 C   0  0  0  0  0  0  0  0  0  0  0  0
   41.0144   46.5733   41.5458 C   0  0  0  0  0  0  0  0  0  0  0  0
   40.6895   47.9024   41.2820 C   0  0  0  0  0  0  0  0  0  0  0  0
   41.0573   48.9574   42.1627 N   0  0  0  0  0  0  0  0  0  0  0  0
   41.6801   46.0410   42.5890 N   0  0  0  0  0  0  0  0  0  0  0  0
   41.7102   44.7166   42.2853 C   0  0  0  0  0  0  0  0  0  0  0  0
   41.0908   44.4099   41.1136 N   0  0  0  0  0  0  0  0  0  0  0  0
   39.6922   43.4210   36.4170 H   0  0  0  0  0  0  0  0  0  0  0  0
   40.3704   44.7717   37.4380 H   0  0  0  0  0  0  0  0  0  0  0  0
   40.8955   41.7689   37.8727 H   0  0  0  0  0  0  0  0  0  0  0  0
   38.7104   43.6091   38.9557 H   0  0  0  0  0  0  0  0  0  0  0  0
   39.1066   40.8962   38.2216 H   0  0  0  0  0  0  0  0  0  0  0  0
   39.0573   42.7876   41.1853 H   0  0  0  0  0  0  0  0  0  0  0  0
   40.9608   40.9153   40.8293 H   0  0  0  0  0  0  0  0  0  0  0  0
   41.8280   42.4443   41.0285 H   0  0  0  0  0  0  0  0  0  0  0  0
   39.1211   47.4172   38.3514 H   0  0  0  0  0  0  0  0  0  0  0  0
   43.4016   44.2179   34.2161 H   0  0  0  0  0  0  0  0  0  0  0  0
   39.8318   46.1152   31.9239 H   0  0  0  0  0  0  0  0  0  0  0  0
   40.7834   49.9414   41.9465 H   0  0  0  0  0  0  0  0  0  0  0  0
   41.6023   48.7657   43.0326 H   0  0  0  0  0  0  0  0  0  0  0  0
   42.2067   43.9843   42.9089 H   0  0  0  0  0  0  0  0  0  0  0  0
  4  3  1  0
  2  4  1  1
  5  3  1  0
  6  5  1  0
  7  5  1  0
  7  8  1  0
  9  7  1  0
  9 10  1  0
 11  9  1  0
 11  6  1  0
 13  2  2  0
 14  1  2  0
 15 12  2  0
 16  2  1  0
 17  1  2  0
 18 15  1  0
 19  2  1  0
 19  1  1  0
  1 20  1  0
 21 18  2  0
 22 21  1  0
 23 22  2  0
 23 12  1  0
 24 23  1  0
 25 22  1  0
 26 25  2  0
 11 27  1  0
 27 26  1  0
 27 21  1  0
  3 28  1  0
  3 29  1  0
  5 30  1  6
  7 31  1  1
  8 32  1  0
  9 33  1  1
 10 34  1  0
 11 35  1  1
 15 36  1  0
 16 37  1  0
 20 38  1  0
 24 39  1  0
 24 40  1  0
 26 41  1  0
M  END
