
     RDKit          3D

 28 27  0  0  0  0  0  0  0  0999 V2000
    4.4770  -11.9271   -1.6094 N   0  0  0  0  0  0  0  0  0  0  0  0
    4.9562  -10.7093   -1.9247 O   0  0  0  0  0  0  0  0  0  0  0  0
    5.3097  -13.4548    4.4913 P   0  0  0  0  0  0  0  0  0  0  0  0
    6.5857  -13.4704    3.6823 O   0  0  0  0  0  0  0  0  0  0  0  0
    4.5045  -11.9967    4.2818 O   0  0  0  0  0  0  0  0  0  0  0  0
    5.6513  -13.6490    6.1219 O   0  0  0  0  0  0  0  0  0  0  0  0
    4.0957  -12.2186   -0.2704 C   0  0  0  0  0  0  0  0  0  0  0  0
    4.3122  -11.3807    0.6446 O   0  0  0  0  0  0  0  0  0  0  0  0
    3.5756  -13.5779    0.0740 C   0  0  1  0  0  0  0  0  0  0  0  0
    4.0770  -14.5392   -0.8249 O   0  0  0  0  0  0  0  0  0  0  0  0
    4.0228  -13.9113    1.5051 C   0  0  2  0  0  0  0  0  0  0  0  0
    4.2696  -15.2940    1.6008 O   0  0  0  0  0  0  0  0  0  0  0  0
    2.9609  -13.4860    2.5417 C   0  0  2  0  0  0  0  0  0  0  0  0
    3.1710  -12.1405    2.9021 O   0  0  0  0  0  0  0  0  0  0  0  0
    3.0023  -14.3825    3.7944 C   0  0  0  0  0  0  0  0  0  0  0  0
    4.3317  -14.7725    4.0616 O   0  0  0  0  0  0  0  0  0  0  0  0
    4.4462  -12.6577   -2.3548 H   0  0  0  0  0  0  0  0  0  0  0  0
    5.1044  -10.7396   -2.9047 H   0  0  0  0  0  0  0  0  0  0  0  0
    3.7584  -12.0102    4.9332 H   0  0  0  0  0  0  0  0  0  0  0  0
    6.1560  -14.4996    6.1750 H   0  0  0  0  0  0  0  0  0  0  0  0
    2.4615  -13.5595    0.0304 H   0  0  0  0  0  0  0  0  0  0  0  0
    4.7196  -14.0677   -1.4172 H   0  0  0  0  0  0  0  0  0  0  0  0
    4.9588  -13.3432    1.7273 H   0  0  0  0  0  0  0  0  0  0  0  0
    5.2396  -15.4110    1.7785 H   0  0  0  0  0  0  0  0  0  0  0  0
    1.9506  -13.5958    2.0820 H   0  0  0  0  0  0  0  0  0  0  0  0
    3.0558  -12.0853    3.8867 H   0  0  0  0  0  0  0  0  0  0  0  0
    2.6388  -13.7912    4.6616 H   0  0  0  0  0  0  0  0  0  0  0  0
    2.2764  -15.2189    3.6787 H   0  0  0  0  0  0  0  0  0  0  0  0
  2  1  1  0
  4  3  2  0
  5  3  1  0
  6  3  1  0
  7  1  1  0
  8  7  2  0
  9  7  1  0
  9 10  1  0
 11  9  1  0
 11 12  1  0
 13 11  1  0
 13 14  1  0
 15 13  1  0
 16 15  1  0
 16  3  1  0
  1 17  1  0
  2 18  1  0
  5 19  1  0
  6 20  1  0
  9 21  1  1
 10 22  1  0
 11 23  1  1
 12 24  1  0
 13 25  1  6
 14 26  1  0
 15 27  1  0
 15 28  1  0
M  END
