
     RDKit          3D

 66 70  0  0  0  0  0  0  0  0999 V2000
  -19.7011   -9.6886   -7.1067 C   0  0  0  0  0  0  0  0  0  0  0  0
  -18.8939  -10.4832   -6.1548 C   0  0  0  0  0  0  0  0  0  0  0  0
  -19.4267  -11.6818   -5.7462 O   0  0  0  0  0  0  0  0  0  0  0  0
  -18.5409  -12.8298   -4.8821 P   0  0  2  0  0  0  0  0  0  0  0  0
  -19.3407  -12.1073   -2.5631 C   0  0  0  0  0  0  0  0  0  0  0  0
  -18.2130  -12.2317   -3.3661 O   0  0  0  0  0  0  0  0  0  0  0  0
  -18.7232  -12.0213   -1.1869 C   0  0  1  0  0  0  0  0  0  0  0  0
  -17.4067  -11.5191   -1.2599 O   0  0  0  0  0  0  0  0  0  0  0  0
  -19.5276  -11.1877   -0.2356 C   0  0  1  0  0  0  0  0  0  0  0  0
  -20.6016  -11.9208    0.3223 O   0  0  0  0  0  0  0  0  0  0  0  0
  -18.4630  -10.7552    0.7584 C   0  0  1  0  0  0  0  0  0  0  0  0
  -18.4020  -11.6348    1.8592 O   0  0  0  0  0  0  0  0  0  0  0  0
  -17.1517  -10.7923   -0.0800 C   0  0  2  0  0  0  0  0  0  0  0  0
  -12.9910   -8.0277   -1.5725 N   0  0  0  0  0  0  0  0  0  0  0  0
  -24.1649   -4.2744   -9.0337 N   0  0  0  0  0  0  0  0  0  0  0  0
  -20.9467   -3.8662   -8.4365 S   0  0  0  0  0  0  0  0  0  0  0  0
  -13.0431   -9.3469   -1.1885 C   0  0  0  0  0  0  0  0  0  0  0  0
  -20.9690   -5.6042   -8.9312 C   0  0  2  0  0  0  0  0  0  0  0  0
  -23.2574   -6.2234   -8.1171 N   0  0  0  0  0  0  0  0  0  0  0  0
  -24.2462   -5.2300   -8.0078 C   0  0  0  0  0  0  0  0  0  0  0  0
  -14.2347   -9.9130   -0.7993 N   0  0  0  0  0  0  0  0  0  0  0  0
  -25.1043   -5.1985   -7.0874 O   0  0  0  0  0  0  0  0  0  0  0  0
  -15.3536   -9.1302   -0.8014 C   0  0  0  0  0  0  0  0  0  0  0  0
  -22.4354   -5.9324   -9.2920 C   0  0  1  0  0  0  0  0  0  0  0  0
  -15.3166   -7.8302   -1.1871 C   0  0  0  0  0  0  0  0  0  0  0  0
  -23.0474   -4.6393   -9.9046 C   0  0  2  0  0  0  0  0  0  0  0  0
  -14.1169   -7.2474   -1.5820 C   0  0  0  0  0  0  0  0  0  0  0  0
  -21.9835   -3.5434   -9.8819 C   0  0  0  0  0  0  0  0  0  0  0  0
  -14.0569   -5.8830   -1.9859 N   0  0  0  0  0  0  0  0  0  0  0  0
  -20.3204   -6.4432   -7.8313 C   0  0  0  0  0  0  0  0  0  0  0  0
  -16.5464   -7.2855   -1.1340 N   0  0  0  0  0  0  0  0  0  0  0  0
  -17.3239   -8.3145   -0.6996 C   0  0  0  0  0  0  0  0  0  0  0  0
  -21.1108   -7.7002   -7.5025 C   0  0  0  0  0  0  0  0  0  0  0  0
  -20.3574   -8.5068   -6.4475 C   0  0  0  0  0  0  0  0  0  0  0  0
  -16.6239   -9.4607   -0.4570 N   0  0  0  0  0  0  0  0  0  0  0  0
  -17.7414  -10.1123   -5.7976 O   0  0  0  0  0  0  0  0  0  0  0  0
  -17.1991  -13.0942   -5.5179 O   0  0  0  0  0  0  0  0  0  0  0  0
  -19.4518  -14.2226   -4.8764 O   0  0  0  0  0  0  0  0  0  0  0  0
  -19.0319   -9.3428   -7.9255 H   0  0  0  0  0  0  0  0  0  0  0  0
  -20.4777  -10.3418   -7.5631 H   0  0  0  0  0  0  0  0  0  0  0  0
  -19.9997  -13.0039   -2.6231 H   0  0  0  0  0  0  0  0  0  0  0  0
  -19.9027  -11.1799   -2.8113 H   0  0  0  0  0  0  0  0  0  0  0  0
  -18.6520  -13.0560   -0.7717 H   0  0  0  0  0  0  0  0  0  0  0  0
  -19.9286  -10.2877   -0.7536 H   0  0  0  0  0  0  0  0  0  0  0  0
  -20.2621  -12.7660    0.7146 H   0  0  0  0  0  0  0  0  0  0  0  0
  -18.6825   -9.7398    1.1492 H   0  0  0  0  0  0  0  0  0  0  0  0
  -18.0708  -12.5161    1.5431 H   0  0  0  0  0  0  0  0  0  0  0  0
  -16.3608  -11.3237    0.4944 H   0  0  0  0  0  0  0  0  0  0  0  0
  -24.8008   -3.4554   -9.1580 H   0  0  0  0  0  0  0  0  0  0  0  0
  -12.1413   -9.9434   -1.1928 H   0  0  0  0  0  0  0  0  0  0  0  0
  -20.3474   -5.6998   -9.8506 H   0  0  0  0  0  0  0  0  0  0  0  0
  -23.1715   -7.0599   -7.4980 H   0  0  0  0  0  0  0  0  0  0  0  0
  -22.4882   -6.7807  -10.0087 H   0  0  0  0  0  0  0  0  0  0  0  0
  -23.4166   -4.8136  -10.9386 H   0  0  0  0  0  0  0  0  0  0  0  0
  -21.3620   -3.5922  -10.8024 H   0  0  0  0  0  0  0  0  0  0  0  0
  -22.4401   -2.5331   -9.8124 H   0  0  0  0  0  0  0  0  0  0  0  0
  -13.7965   -5.6385   -2.9670 H   0  0  0  0  0  0  0  0  0  0  0  0
  -14.2700   -5.1112   -1.3154 H   0  0  0  0  0  0  0  0  0  0  0  0
  -20.1812   -5.8289   -6.9150 H   0  0  0  0  0  0  0  0  0  0  0  0
  -19.3079   -6.7459   -8.1811 H   0  0  0  0  0  0  0  0  0  0  0  0
  -18.3956   -8.2246   -0.5863 H   0  0  0  0  0  0  0  0  0  0  0  0
  -21.2347   -8.3059   -8.4279 H   0  0  0  0  0  0  0  0  0  0  0  0
  -22.1162   -7.4231   -7.1165 H   0  0  0  0  0  0  0  0  0  0  0  0
  -21.0639   -8.8600   -5.6633 H   0  0  0  0  0  0  0  0  0  0  0  0
  -19.5769   -7.8718   -5.9710 H   0  0  0  0  0  0  0  0  0  0  0  0
  -18.9549  -14.8471   -4.2897 H   0  0  0  0  0  0  0  0  0  0  0  0
  2  1  1  0
  3  2  1  0
  4  3  1  6
  6  5  1  0
  6  4  1  0
  7  5  1  0
  8  7  1  0
  9  7  1  0
  9 10  1  0
 11  9  1  0
 11 12  1  0
 13 11  1  0
 13  8  1  0
 17 14  2  0
 18 16  1  0
 20 19  1  0
 20 15  1  0
 21 17  1  0
 22 20  2  0
 23 21  2  0
 24 19  1  0
 24 18  1  0
 25 23  1  0
 26 24  1  0
 26 15  1  0
 27 25  2  0
 27 14  1  0
 26 28  1  0
 28 16  1  0
 29 27  1  0
 18 30  1  0
 31 25  1  0
 32 31  2  0
 33 30  1  0
 34 33  1  0
 34  1  1  0
 35 32  1  0
 13 35  1  0
 35 23  1  0
 36  2  2  0
 37  4  2  0
 38  4  1  0
  1 39  1  0
  1 40  1  0
  5 41  1  0
  5 42  1  0
  7 43  1  1
  9 44  1  6
 10 45  1  0
 11 46  1  1
 12 47  1  0
 13 48  1  1
 15 49  1  0
 17 50  1  0
 18 51  1  6
 19 52  1  0
 24 53  1  6
 26 54  1  6
 28 55  1  0
 28 56  1  0
 29 57  1  0
 29 58  1  0
 30 59  1  0
 30 60  1  0
 32 61  1  0
 33 62  1  0
 33 63  1  0
 34 64  1  0
 34 65  1  0
 38 66  1  0
M  END
