
     RDKit          3D

 67 72  0  0  0  0  0  0  0  0999 V2000
   -2.1843    6.6560   28.7695 Cl  0  0  0  0  0  0  0  0  0  0  0  0
   -2.5836   13.2838   23.0292 C   0  0  1  0  0  0  0  0  0  0  0  0
   -2.1843    8.5572   26.4607 S   0  0  0  0  0  0  0  0  0  0  0  0
   -2.8419   12.9081   21.5714 C   0  0  2  0  0  0  0  0  0  0  0  0
   -3.9125   13.5975   23.5861 N   0  0  0  0  0  0  0  0  0  0  0  0
   -1.8269   12.2375   23.8025 C   0  0  0  0  0  0  0  0  0  0  0  0
   -4.0576   13.7778   21.1806 C   0  0  2  0  0  0  0  0  0  0  0  0
   -3.3520   11.5039   21.3962 C   0  0  0  0  0  0  0  0  0  0  0  0
   -4.5674   14.3553   22.5157 C   0  0  2  0  0  0  0  0  0  0  0  0
   -3.8410   14.5081   24.7339 C   0  0  0  0  0  0  0  0  0  0  0  0
   -0.6597   11.7095   23.3786 N   0  0  0  0  0  0  0  0  0  0  0  0
   -0.3085   10.8222   24.2609 O   0  0  0  0  0  0  0  0  0  0  0  0
   -5.0383   12.7873   20.6476 C   0  0  0  0  0  0  0  0  0  0  0  0
   -4.6904   11.4634   20.9673 N   0  0  0  0  0  0  0  0  0  0  0  0
   -2.6614   10.4626   21.5516 O   0  0  0  0  0  0  0  0  0  0  0  0
   -4.2008   15.8265   22.7236 C   0  0  0  0  0  0  0  0  0  0  0  0
   -3.8703   15.9374   24.2038 C   0  0  0  0  0  0  0  0  0  0  0  0
   -2.2056   11.6507   24.9952 C   0  0  0  0  0  0  0  0  0  0  0  0
   -1.1875   10.7593   25.2302 C   0  0  0  0  0  0  0  0  0  0  0  0
   -6.0555   13.0820   19.9678 O   0  0  0  0  0  0  0  0  0  0  0  0
   -5.4146   10.2737   20.5692 C   0  0  0  0  0  0  0  0  0  0  0  0
   -1.0881    9.8121   26.3091 C   0  0  0  0  0  0  0  0  0  0  0  0
   -5.0146    9.8288   19.1657 C   0  0  0  0  0  0  0  0  0  0  0  0
   -0.1871    9.8260   27.3655 C   0  0  0  0  0  0  0  0  0  0  0  0
   -5.8876    8.6109   18.8067 C   0  0  0  0  0  0  0  0  0  0  0  0
   -0.4300    8.7876   28.2643 C   0  0  0  0  0  0  0  0  0  0  0  0
   -1.5222    8.0100   27.8928 C   0  0  0  0  0  0  0  0  0  0  0  0
   -7.2668    8.9176   18.3257 N   0  0  0  0  0  0  0  0  0  0  0  0
   -7.2134    9.5333   16.9678 C   0  0  0  0  0  0  0  0  0  0  0  0
   -7.9819    7.6315   18.1157 C   0  0  0  0  0  0  0  0  0  0  0  0
   -7.5489    8.4671   15.9303 C   0  0  0  0  0  0  0  0  0  0  0  0
   -7.6899    7.1783   16.7014 C   0  0  0  0  0  0  0  0  0  0  0  0
   -8.0309    9.8092   19.2564 C   0  0  0  0  0  0  0  0  0  0  0  0
   -7.3459   11.1453   19.6075 C   0  0  0  0  0  0  0  0  0  0  0  0
   -7.6215   11.5134   20.9294 O   0  0  0  0  0  0  0  0  0  0  0  0
   -1.9408   14.1969   23.0227 H   0  0  0  0  0  0  0  0  0  0  0  0
   -1.9612   13.0979   20.9198 H   0  0  0  0  0  0  0  0  0  0  0  0
   -3.8077   14.5488   20.4189 H   0  0  0  0  0  0  0  0  0  0  0  0
   -5.6725   14.2473   22.6177 H   0  0  0  0  0  0  0  0  0  0  0  0
   -4.7286   14.3326   25.3797 H   0  0  0  0  0  0  0  0  0  0  0  0
   -2.9343   14.3285   25.3542 H   0  0  0  0  0  0  0  0  0  0  0  0
   -3.3085   16.1139   22.1239 H   0  0  0  0  0  0  0  0  0  0  0  0
   -5.0496   16.4896   22.4481 H   0  0  0  0  0  0  0  0  0  0  0  0
   -2.8803   16.4243   24.3440 H   0  0  0  0  0  0  0  0  0  0  0  0
   -4.6450   16.5324   24.7354 H   0  0  0  0  0  0  0  0  0  0  0  0
   -3.0982   11.8271   25.5810 H   0  0  0  0  0  0  0  0  0  0  0  0
   -5.2042    9.4612   21.2994 H   0  0  0  0  0  0  0  0  0  0  0  0
   -6.5058   10.4864   20.6123 H   0  0  0  0  0  0  0  0  0  0  0  0
   -3.9342    9.5840   19.1602 H   0  0  0  0  0  0  0  0  0  0  0  0
   -5.1867   10.6730   18.4688 H   0  0  0  0  0  0  0  0  0  0  0  0
    0.6027   10.5559   27.4858 H   0  0  0  0  0  0  0  0  0  0  0  0
   -5.9362    7.9461   19.6990 H   0  0  0  0  0  0  0  0  0  0  0  0
   -5.3443    8.0224   18.0311 H   0  0  0  0  0  0  0  0  0  0  0  0
    0.1508    8.6213   29.1617 H   0  0  0  0  0  0  0  0  0  0  0  0
   -6.2235    9.9667   16.7179 H   0  0  0  0  0  0  0  0  0  0  0  0
   -7.9456   10.3664   16.8539 H   0  0  0  0  0  0  0  0  0  0  0  0
   -9.0859    7.7628   18.1999 H   0  0  0  0  0  0  0  0  0  0  0  0
   -7.6911    6.8378   18.8407 H   0  0  0  0  0  0  0  0  0  0  0  0
   -6.7495    8.3807   15.1620 H   0  0  0  0  0  0  0  0  0  0  0  0
   -8.5105    8.7119   15.4267 H   0  0  0  0  0  0  0  0  0  0  0  0
   -6.7363    6.6069   16.6723 H   0  0  0  0  0  0  0  0  0  0  0  0
   -8.5098    6.5456   16.2967 H   0  0  0  0  0  0  0  0  0  0  0  0
   -8.2508    9.2771   20.2104 H   0  0  0  0  0  0  0  0  0  0  0  0
   -9.0280   10.0446   18.8219 H   0  0  0  0  0  0  0  0  0  0  0  0
   -6.2494   11.1059   19.4415 H   0  0  0  0  0  0  0  0  0  0  0  0
   -7.7488   11.9267   18.9252 H   0  0  0  0  0  0  0  0  0  0  0  0
   -7.5619   10.6812   21.4667 H   0  0  0  0  0  0  0  0  0  0  0  0
  4  2  1  0
  5  2  1  0
  2  6  1  0
  7  4  1  0
  4  8  1  0
  9  7  1  0
  9  5  1  0
 10  5  1  0
 11  6  2  0
 12 11  1  0
  7 13  1  0
 14 13  1  0
 14  8  1  0
 15  8  2  0
  9 16  1  0
 17 16  1  0
 17 10  1  0
 18  6  1  0
 19 12  1  0
 19 18  2  0
 20 13  2  0
 21 14  1  0
 22 19  1  0
 22  3  1  0
 23 21  1  0
 24 22  2  0
 25 23  1  0
 26 24  1  0
 27  3  1  0
 27 26  2  0
 27  1  1  0
 28 25  1  0
 29 28  1  0
 30 28  1  0
 31 29  1  0
 32 30  1  0
 32 31  1  0
 33 28  1  0
 34 33  1  0
 35 34  1  0
  2 36  1  6
  4 37  1  6
  7 38  1  6
  9 39  1  6
 10 40  1  0
 10 41  1  0
 16 42  1  0
 16 43  1  0
 17 44  1  0
 17 45  1  0
 18 46  1  0
 21 47  1  0
 21 48  1  0
 23 49  1  0
 23 50  1  0
 24 51  1  0
 25 52  1  0
 25 53  1  0
 26 54  1  0
 29 55  1  0
 29 56  1  0
 30 57  1  0
 30 58  1  0
 31 59  1  0
 31 60  1  0
 32 61  1  0
 32 62  1  0
 33 63  1  0
 33 64  1  0
 34 65  1  0
 34 66  1  0
 35 67  1  0
M  CHG  1  28   1
M  END
