
     RDKit          3D

 73 78  0  0  0  0  0  0  0  0999 V2000
   31.7431   28.6240   10.1181 P   0  0  1  0  0  0  0  0  0  0  0  0
   29.8822   26.5244    9.8797 P   0  0  1  0  0  0  0  0  0  0  0  0
   30.2477   24.1609    9.0427 C   0  0  0  0  0  0  0  0  0  0  0  0
   30.8954   25.1883    9.7289 O   0  0  0  0  0  0  0  0  0  0  0  0
   31.0764   22.9003    9.2447 C   0  0  1  0  0  0  0  0  0  0  0  0
   31.0012   22.4580   10.5806 O   0  0  0  0  0  0  0  0  0  0  0  0
   30.5489   21.7791    8.3724 C   0  0  1  0  0  0  0  0  0  0  0  0
   31.2212   21.7702    7.1403 O   0  0  0  0  0  0  0  0  0  0  0  0
   30.8351   20.5372    9.2001 C   0  0  1  0  0  0  0  0  0  0  0  0
   31.7499   19.6700    8.5723 O   0  0  0  0  0  0  0  0  0  0  0  0
   31.3781   21.1046   10.5185 C   0  0  2  0  0  0  0  0  0  0  0  0
   32.6911   18.4901   14.7096 N   0  0  0  0  0  0  0  0  0  0  0  0
   32.7279   27.9882    9.1664 O   0  0  0  0  0  0  0  0  0  0  0  0
   29.4823   27.0947    8.5360 O   0  0  0  0  0  0  0  0  0  0  0  0
   33.4949   19.0996   13.7748 C   0  0  0  0  0  0  0  0  0  0  0  0
   34.9151   19.0296   13.8894 N   0  0  0  0  0  0  0  0  0  0  0  0
   32.5753   29.3642   11.3718 O   0  0  0  0  0  0  0  0  0  0  0  0
   28.5197   26.1115   10.7651 O   0  0  0  0  0  0  0  0  0  0  0  0
   32.9355   19.7674   12.7272 N   0  0  0  0  0  0  0  0  0  0  0  0
   30.8385   29.7608    9.2699 O   0  0  0  0  0  0  0  0  0  0  0  0
   30.7168   27.5529   10.9101 O   0  0  0  0  0  0  0  0  0  0  0  0
   31.5840   19.8040   12.6374 C   0  0  0  0  0  0  0  0  0  0  0  0
   30.7639   19.2218   13.5422 C   0  0  0  0  0  0  0  0  0  0  0  0
   31.3239   18.5308   14.6169 C   0  0  0  0  0  0  0  0  0  0  0  0
   30.6120   17.9501   15.4784 O   0  0  0  0  0  0  0  0  0  0  0  0
   29.4714   19.4247   13.1995 N   0  0  0  0  0  0  0  0  0  0  0  0
   29.5728   20.1484   12.0476 C   0  0  0  0  0  0  0  0  0  0  0  0
   30.8597   20.3779   11.6769 N   0  0  0  0  0  0  0  0  0  0  0  0
   29.9011   30.3972   10.1074 C   0  0  0  0  0  0  0  0  0  0  0  0
   29.9562   31.8793    9.7705 C   0  0  1  0  0  0  0  0  0  0  0  0
   29.8857   31.9936    8.3671 O   0  0  0  0  0  0  0  0  0  0  0  0
   28.8714   32.7045   10.4478 C   0  0  0  0  0  0  0  0  0  0  0  0
   28.4355   32.3690   12.1579 S   0  0  0  0  0  0  0  0  0  0  0  0
   28.3560   33.7821    9.8136 C   0  0  0  0  0  0  0  0  0  0  0  0
   27.1665   34.8528   10.6208 S   0  0  0  0  0  0  0  0  0  0  0  0
   28.6853   34.0604    8.3712 C   0  0  2  0  0  0  0  0  0  0  0  0
   27.5863   33.5665    7.5285 N   0  0  0  0  0  0  0  0  0  0  0  0
   27.8287   33.1014    6.1920 C   0  0  0  0  0  0  0  0  0  0  0  0
   26.7978   32.7067    5.3387 C   0  0  0  0  0  0  0  0  0  0  0  0
   25.5994   32.7328    5.7285 O   0  0  0  0  0  0  0  0  0  0  0  0
   27.0953   32.2871    4.0763 N   0  0  0  0  0  0  0  0  0  0  0  0
   28.3833   32.2414    3.6341 C   0  0  0  0  0  0  0  0  0  0  0  0
   28.6726   31.7980    2.3138 N   0  0  0  0  0  0  0  0  0  0  0  0
   29.3944   32.6107    4.4564 N   0  0  0  0  0  0  0  0  0  0  0  0
   29.1375   33.0389    5.7135 C   0  0  0  0  0  0  0  0  0  0  0  0
   30.2058   33.4102    6.5714 N   0  0  0  0  0  0  0  0  0  0  0  0
   30.0017   33.3493    8.0047 C   0  0  2  0  0  0  0  0  0  0  0  0
   30.1973   24.4144    7.9600 H   0  0  0  0  0  0  0  0  0  0  0  0
   29.2201   23.9761    9.4351 H   0  0  0  0  0  0  0  0  0  0  0  0
   32.1415   23.1201    8.9897 H   0  0  0  0  0  0  0  0  0  0  0  0
   29.4452   21.8575    8.2159 H   0  0  0  0  0  0  0  0  0  0  0  0
   30.7827   22.4542    6.5703 H   0  0  0  0  0  0  0  0  0  0  0  0
   29.8852   19.9823    9.3603 H   0  0  0  0  0  0  0  0  0  0  0  0
   32.6426   19.8011    8.9877 H   0  0  0  0  0  0  0  0  0  0  0  0
   32.4923   21.0607   10.5240 H   0  0  0  0  0  0  0  0  0  0  0  0
   33.1315   17.9773   15.5070 H   0  0  0  0  0  0  0  0  0  0  0  0
   35.3617   18.5197   14.6835 H   0  0  0  0  0  0  0  0  0  0  0  0
   35.5245   19.4898   13.1773 H   0  0  0  0  0  0  0  0  0  0  0  0
   31.9346   29.9924   11.7905 H   0  0  0  0  0  0  0  0  0  0  0  0
   28.0178   26.9594   10.8675 H   0  0  0  0  0  0  0  0  0  0  0  0
   28.7143   20.4999   11.4901 H   0  0  0  0  0  0  0  0  0  0  0  0
   30.0767   30.2644   11.1995 H   0  0  0  0  0  0  0  0  0  0  0  0
   28.8902   29.9991    9.8725 H   0  0  0  0  0  0  0  0  0  0  0  0
   30.9447   32.2474   10.1334 H   0  0  0  0  0  0  0  0  0  0  0  0
   29.6759   32.8444   12.6228 H   0  0  0  0  0  0  0  0  0  0  0  0
   27.5940   34.4494   11.8995 H   0  0  0  0  0  0  0  0  0  0  0  0
   28.8020   35.1551    8.2168 H   0  0  0  0  0  0  0  0  0  0  0  0
   26.6011   33.7029    7.8507 H   0  0  0  0  0  0  0  0  0  0  0  0
   26.3202   31.9943    3.4388 H   0  0  0  0  0  0  0  0  0  0  0  0
   29.6597   31.7594    1.9753 H   0  0  0  0  0  0  0  0  0  0  0  0
   27.9059   31.5067    1.6678 H   0  0  0  0  0  0  0  0  0  0  0  0
   31.1636   33.5676    6.1845 H   0  0  0  0  0  0  0  0  0  0  0  0
   30.8687   33.8457    8.5037 H   0  0  0  0  0  0  0  0  0  0  0  0
  4  3  1  0
  2  4  1  6
  5  3  1  0
  6  5  1  0
  7  5  1  0
  7  8  1  0
  9  7  1  0
  9 10  1  0
 11  9  1  0
 11  6  1  0
 13  1  2  0
 14  2  2  0
 15 12  1  0
 16 15  1  0
  1 17  1  1
 18  2  1  0
 19 15  2  0
 20  1  1  0
 21  2  1  0
 21  1  1  0
 22 19  1  0
 23 22  2  0
 24 23  1  0
 24 12  1  0
 25 24  2  0
 26 23  1  0
 27 26  2  0
 11 28  1  0
 28 27  1  0
 28 22  1  0
 29 20  1  0
 30 29  1  0
 31 30  1  0
 32 30  1  0
 33 32  1  0
 34 32  2  0
 35 34  1  0
 36 34  1  0
 36 37  1  0
 38 37  1  0
 39 38  1  0
 40 39  2  0
 41 39  1  0
 42 41  1  0
 43 42  1  0
 44 42  2  0
 45 44  1  0
 45 38  2  0
 46 45  1  0
 47 31  1  0
 47 46  1  0
 47 36  1  0
  3 48  1  0
  3 49  1  0
  5 50  1  6
  7 51  1  6
  8 52  1  0
  9 53  1  1
 10 54  1  0
 11 55  1  6
 12 56  1  0
 16 57  1  0
 16 58  1  0
 17 59  1  0
 18 60  1  0
 27 61  1  0
 29 62  1  0
 29 63  1  0
 30 64  1  1
 33 65  1  0
 35 66  1  0
 36 67  1  1
 37 68  1  0
 41 69  1  0
 43 70  1  0
 43 71  1  0
 46 72  1  0
 47 73  1  1
M  END
