
     RDKit          3D

 73 78  0  0  0  0  0  0  0  0999 V2000
   30.5280   28.9982   10.0849 P   0  0  1  0  0  0  0  0  0  0  0  0
   28.5604   26.9985    9.8439 P   0  0  1  0  0  0  0  0  0  0  0  0
   28.8095   24.7541    8.6945 C   0  0  0  0  0  0  0  0  0  0  0  0
   29.4979   25.6363    9.5273 O   0  0  0  0  0  0  0  0  0  0  0  0
   29.5581   23.4295    8.7346 C   0  0  1  0  0  0  0  0  0  0  0  0
   29.4232   22.8138    9.9950 O   0  0  0  0  0  0  0  0  0  0  0  0
   28.9890   22.4727    7.7066 C   0  0  1  0  0  0  0  0  0  0  0  0
   29.6909   22.5917    6.4970 O   0  0  0  0  0  0  0  0  0  0  0  0
   29.1813   21.1140    8.3595 C   0  0  1  0  0  0  0  0  0  0  0  0
   30.0600   20.2868    7.6338 O   0  0  0  0  0  0  0  0  0  0  0  0
   29.7224   21.4613    9.7529 C   0  0  2  0  0  0  0  0  0  0  0  0
   30.7739   18.2220   13.5644 N   0  0  0  0  0  0  0  0  0  0  0  0
   31.5108   28.3742    9.1235 O   0  0  0  0  0  0  0  0  0  0  0  0
   28.0920   27.6788    8.5757 O   0  0  0  0  0  0  0  0  0  0  0  0
   31.6353   18.9036   12.7369 C   0  0  0  0  0  0  0  0  0  0  0  0
   33.0457   18.7321   12.8653 N   0  0  0  0  0  0  0  0  0  0  0  0
   31.3634   29.7359   11.3381 O   0  0  0  0  0  0  0  0  0  0  0  0
   27.2474   26.5795   10.7983 O   0  0  0  0  0  0  0  0  0  0  0  0
   31.1426   19.7416   11.7822 N   0  0  0  0  0  0  0  0  0  0  0  0
   29.6114   30.1346    9.2492 O   0  0  0  0  0  0  0  0  0  0  0  0
   29.5130   27.9162   10.8767 O   0  0  0  0  0  0  0  0  0  0  0  0
   29.7983   19.8725   11.6749 C   0  0  0  0  0  0  0  0  0  0  0  0
   28.9229   19.2230   12.4762 C   0  0  0  0  0  0  0  0  0  0  0  0
   29.4141   18.3584   13.4545 C   0  0  0  0  0  0  0  0  0  0  0  0
   28.6479   17.7096   14.2149 O   0  0  0  0  0  0  0  0  0  0  0  0
   27.6535   19.5494   12.1424 N   0  0  0  0  0  0  0  0  0  0  0  0
   27.8262   20.4165   11.1036 C   0  0  0  0  0  0  0  0  0  0  0  0
   29.1333   20.6156   10.7906 N   0  0  0  0  0  0  0  0  0  0  0  0
   28.6753   30.7603   10.0962 C   0  0  0  0  0  0  0  0  0  0  0  0
   28.7997   32.2557    9.8485 C   0  0  1  0  0  0  0  0  0  0  0  0
   28.7762   32.4534    8.4528 O   0  0  0  0  0  0  0  0  0  0  0  0
   27.7288   33.0851   10.5426 C   0  0  0  0  0  0  0  0  0  0  0  0
   27.2284   32.6701   12.2174 S   0  0  0  0  0  0  0  0  0  0  0  0
   27.2762   34.2179    9.9587 C   0  0  0  0  0  0  0  0  0  0  0  0
   26.1066   35.2889   10.7939 S   0  0  0  0  0  0  0  0  0  0  0  0
   27.6598   34.5647    8.5448 C   0  0  2  0  0  0  0  0  0  0  0  0
   26.5678   34.1662    7.6443 N   0  0  0  0  0  0  0  0  0  0  0  0
   26.8316   33.7691    6.2901 C   0  0  0  0  0  0  0  0  0  0  0  0
   25.8121   33.4674    5.3867 C   0  0  0  0  0  0  0  0  0  0  0  0
   24.6045   33.5208    5.7439 O   0  0  0  0  0  0  0  0  0  0  0  0
   26.1305   33.1090    4.1107 N   0  0  0  0  0  0  0  0  0  0  0  0
   27.4285   33.0352    3.7025 C   0  0  0  0  0  0  0  0  0  0  0  0
   27.7396   32.6569    2.3671 N   0  0  0  0  0  0  0  0  0  0  0  0
   28.4282   33.3143    4.5729 N   0  0  0  0  0  0  0  0  0  0  0  0
   28.1507   33.6797    5.8454 C   0  0  0  0  0  0  0  0  0  0  0  0
   29.2066   33.9564    6.7530 N   0  0  0  0  0  0  0  0  0  0  0  0
   28.9572   33.8217    8.1740 C   0  0  2  0  0  0  0  0  0  0  0  0
   28.8016   25.1561    7.6566 H   0  0  0  0  0  0  0  0  0  0  0  0
   27.7632   24.5803    9.0398 H   0  0  0  0  0  0  0  0  0  0  0  0
   30.6404   23.6168    8.5310 H   0  0  0  0  0  0  0  0  0  0  0  0
   27.8960   22.6390    7.5434 H   0  0  0  0  0  0  0  0  0  0  0  0
   29.1058   23.0981    5.8755 H   0  0  0  0  0  0  0  0  0  0  0  0
   28.1970   20.6013    8.4250 H   0  0  0  0  0  0  0  0  0  0  0  0
   30.9507   20.7253    7.6032 H   0  0  0  0  0  0  0  0  0  0  0  0
   30.8317   21.3491    9.7717 H   0  0  0  0  0  0  0  0  0  0  0  0
   31.1632   17.5789   14.2907 H   0  0  0  0  0  0  0  0  0  0  0  0
   33.4414   18.0919   13.5889 H   0  0  0  0  0  0  0  0  0  0  0  0
   33.6988   19.2474   12.2344 H   0  0  0  0  0  0  0  0  0  0  0  0
   30.7867   29.6484   12.1383 H   0  0  0  0  0  0  0  0  0  0  0  0
   26.7935   27.4377   10.9954 H   0  0  0  0  0  0  0  0  0  0  0  0
   27.0041   20.8928   10.5852 H   0  0  0  0  0  0  0  0  0  0  0  0
   28.8124   30.5577   11.1830 H   0  0  0  0  0  0  0  0  0  0  0  0
   27.6569   30.4188    9.8103 H   0  0  0  0  0  0  0  0  0  0  0  0
   29.7907   32.5609   10.2597 H   0  0  0  0  0  0  0  0  0  0  0  0
   27.9149   31.4423   12.1748 H   0  0  0  0  0  0  0  0  0  0  0  0
   27.1383   36.0722   11.3441 H   0  0  0  0  0  0  0  0  0  0  0  0
   27.8247   35.6606    8.4583 H   0  0  0  0  0  0  0  0  0  0  0  0
   25.5795   34.3248    7.9465 H   0  0  0  0  0  0  0  0  0  0  0  0
   25.3640   32.8859    3.4358 H   0  0  0  0  0  0  0  0  0  0  0  0
   27.1744   33.0247    1.5699 H   0  0  0  0  0  0  0  0  0  0  0  0
   28.5334   32.0090    2.1663 H   0  0  0  0  0  0  0  0  0  0  0  0
   30.1812   34.0957    6.4028 H   0  0  0  0  0  0  0  0  0  0  0  0
   29.8278   34.2520    8.7252 H   0  0  0  0  0  0  0  0  0  0  0  0
  4  3  1  0
  2  4  1  6
  5  3  1  0
  6  5  1  0
  7  5  1  0
  7  8  1  0
  9  7  1  0
  9 10  1  0
 11  9  1  0
 11  6  1  0
 13  1  2  0
 14  2  2  0
 15 12  1  0
 16 15  1  0
  1 17  1  1
 18  2  1  0
 19 15  2  0
 20  1  1  0
 21  2  1  0
 21  1  1  0
 22 19  1  0
 23 22  2  0
 24 23  1  0
 24 12  1  0
 25 24  2  0
 26 23  1  0
 27 26  2  0
 11 28  1  0
 28 27  1  0
 28 22  1  0
 29 20  1  0
 30 29  1  0
 31 30  1  0
 32 30  1  0
 33 32  1  0
 34 32  2  0
 35 34  1  0
 36 34  1  0
 36 37  1  0
 38 37  1  0
 39 38  1  0
 40 39  2  0
 41 39  1  0
 42 41  1  0
 43 42  1  0
 44 42  2  0
 45 44  1  0
 45 38  2  0
 46 45  1  0
 47 31  1  0
 47 46  1  0
 47 36  1  0
  3 48  1  0
  3 49  1  0
  5 50  1  6
  7 51  1  6
  8 52  1  0
  9 53  1  1
 10 54  1  0
 11 55  1  6
 12 56  1  0
 16 57  1  0
 16 58  1  0
 17 59  1  0
 18 60  1  0
 27 61  1  0
 29 62  1  0
 29 63  1  0
 30 64  1  1
 33 65  1  0
 35 66  1  0
 36 67  1  1
 37 68  1  0
 41 69  1  0
 43 70  1  0
 43 71  1  0
 46 72  1  0
 47 73  1  1
M  END
