
     RDKit          3D

 48 50  0  0  0  0  0  0  0  0999 V2000
   -3.1245  -53.4854   22.0483 C   0  0  0  0  0  0  0  0  0  0  0  0
   -4.4152  -52.9965   22.2982 C   0  0  0  0  0  0  0  0  0  0  0  0
   -7.3403  -52.4917   23.0214 C   0  0  0  0  0  0  0  0  0  0  0  0
   -8.4655  -54.0549   24.9451 N   0  0  0  0  0  0  0  0  0  0  0  0
   -1.3474  -56.3719   23.2786 O   0  0  0  0  0  0  0  0  0  0  0  0
   -6.6920  -55.4458   24.8955 O   0  0  0  0  0  0  0  0  0  0  0  0
  -10.2251  -52.6362   25.0148 O   0  0  0  0  0  0  0  0  0  0  0  0
   -4.2887  -48.1117   20.2462 O   0  0  0  0  0  0  0  0  0  0  0  0
   -3.9981  -51.1226   16.5662 O   0  0  0  0  0  0  0  0  0  0  0  0
   -3.5189  -50.3560   21.3267 O   0  0  0  0  0  0  0  0  0  0  0  0
   -6.1738  -49.8779   17.2778 O   0  0  0  0  0  0  0  0  0  0  0  0
   -1.6800  -55.5540   22.3765 C   0  0  0  0  0  0  0  0  0  0  0  0
   -2.9221  -54.7791   22.5046 C   0  0  0  0  0  0  0  0  0  0  0  0
   -5.2534  -53.8984   22.9655 C   0  0  0  0  0  0  0  0  0  0  0  0
   -6.6365  -53.6206   23.4678 C   0  0  0  0  0  0  0  0  0  0  0  0
   -7.2506  -54.4076   24.4554 C   0  0  0  0  0  0  0  0  0  0  0  0
   -9.1138  -52.9448   24.5050 C   0  0  0  0  0  0  0  0  0  0  0  0
   -8.5679  -52.1652   23.5226 N   0  0  0  0  0  0  0  0  0  0  0  0
   -4.9353  -50.7793   19.2637 O   0  0  0  0  0  0  0  0  0  0  0  0
   -4.3461  -55.3058   23.2268 S   0  0  0  0  0  0  0  0  0  0  0  0
   -4.6482  -49.7326   20.5466 P   0  0  2  0  0  0  0  0  0  0  0  0
   -4.7609  -50.1641   17.7148 P   0  0  0  0  0  0  0  0  0  0  0  0
   -7.0686  -49.0343   21.0529 C   0  0  0  0  0  0  0  0  0  0  0  0
   -6.0373  -49.8836   21.4958 O   0  0  0  0  0  0  0  0  0  0  0  0
   -8.3164  -49.2288   21.9188 C   0  0  1  0  0  0  0  0  0  0  0  0
   -8.8301  -50.5363   21.7591 O   0  0  0  0  0  0  0  0  0  0  0  0
   -8.0520  -49.0405   23.4103 C   0  0  1  0  0  0  0  0  0  0  0  0
   -8.0227  -47.7032   23.8374 O   0  0  0  0  0  0  0  0  0  0  0  0
   -9.1880  -49.8101   24.0089 C   0  0  1  0  0  0  0  0  0  0  0  0
  -10.3735  -49.0559   23.9657 O   0  0  0  0  0  0  0  0  0  0  0  0
   -9.3076  -50.9713   23.0294 C   0  0  2  0  0  0  0  0  0  0  0  0
   -3.9481  -48.7066   17.8736 O   0  0  0  0  0  0  0  0  0  0  0  0
   -2.3630  -52.9065   21.5418 H   0  0  0  0  0  0  0  0  0  0  0  0
   -4.6995  -52.0042   21.9866 H   0  0  0  0  0  0  0  0  0  0  0  0
   -6.9220  -51.9018   22.2384 H   0  0  0  0  0  0  0  0  0  0  0  0
   -8.9084  -54.6439   25.6876 H   0  0  0  0  0  0  0  0  0  0  0  0
   -4.9268  -47.7981   19.5609 H   0  0  0  0  0  0  0  0  0  0  0  0
   -4.4912  -51.9815   16.5849 H   0  0  0  0  0  0  0  0  0  0  0  0
   -1.0387  -55.4155   21.5160 H   0  0  0  0  0  0  0  0  0  0  0  0
   -7.3252  -49.3318   20.0140 H   0  0  0  0  0  0  0  0  0  0  0  0
   -6.8165  -47.9561   20.9843 H   0  0  0  0  0  0  0  0  0  0  0  0
   -9.0939  -48.5133   21.5666 H   0  0  0  0  0  0  0  0  0  0  0  0
   -7.1044  -49.5323   23.7204 H   0  0  0  0  0  0  0  0  0  0  0  0
   -8.7561  -47.2075   23.3893 H   0  0  0  0  0  0  0  0  0  0  0  0
   -8.9590  -50.1475   25.0476 H   0  0  0  0  0  0  0  0  0  0  0  0
  -10.4211  -48.5491   24.8181 H   0  0  0  0  0  0  0  0  0  0  0  0
  -10.3796  -51.2449   22.9018 H   0  0  0  0  0  0  0  0  0  0  0  0
   -3.0302  -48.9593   18.1459 H   0  0  0  0  0  0  0  0  0  0  0  0
  2  1  1  0
 12  5  2  0
 13 12  1  0
 13  1  2  0
 14  2  2  0
 15 14  1  0
 15  3  2  0
 16  6  2  0
 16 15  1  0
 16  4  1  0
 17  7  2  0
 17  4  1  0
 18 17  1  0
 18  3  1  0
 20 14  1  0
 20 13  1  0
 21 19  1  6
 21 10  2  0
 21  8  1  0
 22 19  1  0
 22 11  2  0
 22  9  1  0
 24 23  1  0
 24 21  1  0
 25 23  1  0
 26 25  1  0
 27 25  1  0
 27 28  1  0
 29 27  1  0
 29 30  1  0
 31 29  1  0
 31 26  1  0
 31 18  1  0
 32 22  1  0
  1 33  1  0
  2 34  1  0
  3 35  1  0
  4 36  1  0
  8 37  1  0
  9 38  1  0
 12 39  1  0
 23 40  1  0
 23 41  1  0
 25 42  1  6
 27 43  1  1
 28 44  1  0
 29 45  1  1
 30 46  1  0
 31 47  1  6
 32 48  1  0
M  END
