
     RDKit          3D

 33 34  0  0  0  0  0  0  0  0999 V2000
   -3.5744    2.4320   24.6138 P   0  0  0  0  0  0  0  0  0  0  0  0
   -3.3158    3.1834   23.3274 O   0  0  0  0  0  0  0  0  0  0  0  0
   -3.1285    3.3721   25.9265 O   0  0  0  0  0  0  0  0  0  0  0  0
   -5.1991    2.0254   24.7627 O   0  0  0  0  0  0  0  0  0  0  0  0
   -2.6475    0.2456   23.6256 C   0  0  0  0  0  0  0  0  0  0  0  0
   -2.6225    1.0505   24.7669 O   0  0  0  0  0  0  0  0  0  0  0  0
   -1.3050   -0.5029   23.6280 C   0  0  1  0  0  0  0  0  0  0  0  0
   -1.3101   -1.4886   22.6251 O   0  0  0  0  0  0  0  0  0  0  0  0
   -0.1010    0.4216   23.3987 C   0  0  1  0  0  0  0  0  0  0  0  0
    1.0162   -0.1030   24.0794 O   0  0  0  0  0  0  0  0  0  0  0  0
    0.0851    0.3143   21.9062 C   0  0  1  0  0  0  0  0  0  0  0  0
    1.4194    0.5321   21.5195 O   0  0  0  0  0  0  0  0  0  0  0  0
   -0.3411   -1.1336   21.6655 C   0  0  2  0  0  0  0  0  0  0  0  0
   -0.8994   -1.3571   20.3258 N   0  0  0  0  0  0  0  0  0  0  0  0
   -1.8981   -0.5573   19.8258 C   0  0  0  0  0  0  0  0  0  0  0  0
   -2.3885    0.3822   20.5120 O   0  0  0  0  0  0  0  0  0  0  0  0
   -2.3544   -0.7698   18.5634 N   0  0  0  0  0  0  0  0  0  0  0  0
   -1.7866   -1.7135   17.7680 C   0  0  0  0  0  0  0  0  0  0  0  0
   -2.1841   -1.8581   16.5828 O   0  0  0  0  0  0  0  0  0  0  0  0
   -0.7518   -2.5005   18.2716 C   0  0  0  0  0  0  0  0  0  0  0  0
   -0.3348   -2.2879   19.5439 N   0  0  0  0  0  0  0  0  0  0  0  0
   -2.3063    2.9450   26.2766 H   0  0  0  0  0  0  0  0  0  0  0  0
   -5.4971    1.8331   23.8380 H   0  0  0  0  0  0  0  0  0  0  0  0
   -3.4791   -0.4929   23.6766 H   0  0  0  0  0  0  0  0  0  0  0  0
   -2.7406    0.8667   22.7070 H   0  0  0  0  0  0  0  0  0  0  0  0
   -1.2016   -1.0096   24.6141 H   0  0  0  0  0  0  0  0  0  0  0  0
   -0.2926    1.4761   23.7070 H   0  0  0  0  0  0  0  0  0  0  0  0
    1.6664    0.6406   24.1785 H   0  0  0  0  0  0  0  0  0  0  0  0
   -0.5953    1.0286   21.3869 H   0  0  0  0  0  0  0  0  0  0  0  0
    1.5760   -0.0385   20.7224 H   0  0  0  0  0  0  0  0  0  0  0  0
    0.5488   -1.7796   21.8410 H   0  0  0  0  0  0  0  0  0  0  0  0
   -3.1229   -0.1702   18.1842 H   0  0  0  0  0  0  0  0  0  0  0  0
   -0.2762   -3.2582   17.6623 H   0  0  0  0  0  0  0  0  0  0  0  0
  2  1  2  0
  3  1  1  0
  4  1  1  0
  6  5  1  0
  6  1  1  0
  7  5  1  0
  8  7  1  0
  9  7  1  0
  9 10  1  0
 11  9  1  0
 11 12  1  0
 13 11  1  0
 13  8  1  0
 13 14  1  0
 15 14  1  0
 16 15  2  0
 17 15  1  0
 18 17  1  0
 19 18  2  0
 20 18  1  0
 21 20  2  0
 21 14  1  0
  3 22  1  0
  4 23  1  0
  5 24  1  0
  5 25  1  0
  7 26  1  1
  9 27  1  6
 10 28  1  0
 11 29  1  6
 12 30  1  0
 13 31  1  1
 17 32  1  0
 20 33  1  0
M  END
