
     RDKit          3D

 32 33  0  0  0  0  0  0  0  0999 V2000
   13.2530    3.5533   49.5535 N   0  0  0  0  0  0  0  0  0  0  0  0
   13.3675    3.1493   50.8426 C   0  0  0  0  0  0  0  0  0  0  0  0
   12.2673    2.5183   51.4813 N   0  0  0  0  0  0  0  0  0  0  0  0
   14.5305    3.3512   51.5227 N   0  0  0  0  0  0  0  0  0  0  0  0
   15.5953    3.9620   50.9341 C   0  0  0  0  0  0  0  0  0  0  0  0
   15.4884    4.3938   49.6056 C   0  0  0  0  0  0  0  0  0  0  0  0
   16.6556    4.1438   51.5937 O   0  0  0  0  0  0  0  0  0  0  0  0
   16.5477    5.0974   48.9422 N   0  0  0  0  0  0  0  0  0  0  0  0
   16.2038    5.9536   47.7994 C   0  0  2  0  0  0  0  0  0  0  0  0
   15.2549    5.1918   46.8422 C   0  0  0  0  0  0  0  0  0  0  0  0
   14.2852    4.1647   48.9243 C   0  0  0  0  0  0  0  0  0  0  0  0
   14.1354    4.6023   47.5751 N   0  0  0  0  0  0  0  0  0  0  0  0
   17.4856    6.4943   47.1120 C   0  0  1  0  0  0  0  0  0  0  0  0
   18.1584    5.4810   46.4028 O   0  0  0  0  0  0  0  0  0  0  0  0
   17.2123    7.7250   46.2156 C   0  0  1  0  0  0  0  0  0  0  0  0
   16.5055    8.6855   46.9589 O   0  0  0  0  0  0  0  0  0  0  0  0
   18.5210    8.3343   45.7106 C   0  0  0  0  0  0  0  0  0  0  0  0
   11.8673    1.6306   51.1043 H   0  0  0  0  0  0  0  0  0  0  0  0
   11.8445    2.9376   52.3390 H   0  0  0  0  0  0  0  0  0  0  0  0
   14.6079    3.0350   52.5162 H   0  0  0  0  0  0  0  0  0  0  0  0
   17.5120    5.1047   49.3460 H   0  0  0  0  0  0  0  0  0  0  0  0
   15.6362    6.8233   48.1996 H   0  0  0  0  0  0  0  0  0  0  0  0
   14.8487    5.8827   46.0740 H   0  0  0  0  0  0  0  0  0  0  0  0
   15.8007    4.3743   46.3274 H   0  0  0  0  0  0  0  0  0  0  0  0
   13.2380    4.4205   47.0717 H   0  0  0  0  0  0  0  0  0  0  0  0
   18.1644    6.8254   47.9295 H   0  0  0  0  0  0  0  0  0  0  0  0
   19.1249    5.7027   46.3913 H   0  0  0  0  0  0  0  0  0  0  0  0
   16.6135    7.4132   45.3287 H   0  0  0  0  0  0  0  0  0  0  0  0
   17.0233    8.8435   47.7913 H   0  0  0  0  0  0  0  0  0  0  0  0
   18.3324    8.9922   44.8354 H   0  0  0  0  0  0  0  0  0  0  0  0
   19.2185    7.5266   45.4029 H   0  0  0  0  0  0  0  0  0  0  0  0
   19.0101    8.9267   46.5128 H   0  0  0  0  0  0  0  0  0  0  0  0
  2  1  2  0
  3  2  1  0
  4  2  1  0
  5  4  1  0
  6  5  1  0
  7  5  2  0
  8  6  1  0
  9  8  1  0
  9 10  1  0
 11  1  1  0
 11  6  2  0
 12 11  1  0
 12 10  1  0
 13  9  1  0
 13 14  1  0
 15 13  1  0
 16 15  1  0
 15 17  1  0
  3 18  1  0
  3 19  1  0
  4 20  1  0
  8 21  1  0
  9 22  1  1
 10 23  1  0
 10 24  1  0
 12 25  1  0
 13 26  1  1
 14 27  1  0
 15 28  1  6
 16 29  1  0
 17 30  1  0
 17 31  1  0
 17 32  1  0
M  END
