
     RDKit          3D

 32 33  0  0  0  0  0  0  0  0999 V2000
   13.7017    3.0028   49.1487 N   0  0  0  0  0  0  0  0  0  0  0  0
   13.7102    2.6081   50.4458 C   0  0  0  0  0  0  0  0  0  0  0  0
   12.5473    2.0185   51.0083 N   0  0  0  0  0  0  0  0  0  0  0  0
   14.8272    2.7801   51.2065 N   0  0  0  0  0  0  0  0  0  0  0  0
   15.9506    3.3511   50.6916 C   0  0  0  0  0  0  0  0  0  0  0  0
   15.9533    3.7728   49.3555 C   0  0  0  0  0  0  0  0  0  0  0  0
   16.9661    3.5060   51.4245 O   0  0  0  0  0  0  0  0  0  0  0  0
   17.0797    4.4361   48.7649 N   0  0  0  0  0  0  0  0  0  0  0  0
   16.8465    5.2913   47.5937 C   0  0  2  0  0  0  0  0  0  0  0  0
   15.9447    4.5503   46.5765 C   0  0  0  0  0  0  0  0  0  0  0  0
   14.7955    3.5751   48.5910 C   0  0  0  0  0  0  0  0  0  0  0  0
   14.7571    4.0037   47.2312 N   0  0  0  0  0  0  0  0  0  0  0  0
   18.1910    5.7845   46.9965 C   0  0  1  0  0  0  0  0  0  0  0  0
   18.8256    4.7745   46.2484 O   0  0  0  0  0  0  0  0  0  0  0  0
   18.0411    7.0864   46.1746 C   0  0  1  0  0  0  0  0  0  0  0  0
   17.3675    8.0440   46.9518 O   0  0  0  0  0  0  0  0  0  0  0  0
   19.4089    7.6343   45.7649 C   0  0  0  0  0  0  0  0  0  0  0  0
   12.6001    1.4754   51.8985 H   0  0  0  0  0  0  0  0  0  0  0  0
   11.6222    2.1223   50.5352 H   0  0  0  0  0  0  0  0  0  0  0  0
   14.8228    2.4715   52.2054 H   0  0  0  0  0  0  0  0  0  0  0  0
   18.0122    4.4170   49.2372 H   0  0  0  0  0  0  0  0  0  0  0  0
   16.2798    6.1824   47.9453 H   0  0  0  0  0  0  0  0  0  0  0  0
   15.6173    5.2460   45.7757 H   0  0  0  0  0  0  0  0  0  0  0  0
   16.4996    3.7110   46.1087 H   0  0  0  0  0  0  0  0  0  0  0  0
   13.8929    3.8452   46.6658 H   0  0  0  0  0  0  0  0  0  0  0  0
   18.8531    6.0142   47.8611 H   0  0  0  0  0  0  0  0  0  0  0  0
   19.2097    5.1897   45.4339 H   0  0  0  0  0  0  0  0  0  0  0  0
   17.4631    6.8748   45.2453 H   0  0  0  0  0  0  0  0  0  0  0  0
   16.5175    7.6264   47.2502 H   0  0  0  0  0  0  0  0  0  0  0  0
   20.2173    6.9413   46.0821 H   0  0  0  0  0  0  0  0  0  0  0  0
   19.5789    8.6209   46.2459 H   0  0  0  0  0  0  0  0  0  0  0  0
   19.4592    7.7730   44.6641 H   0  0  0  0  0  0  0  0  0  0  0  0
  2  1  2  0
  3  2  1  0
  4  2  1  0
  5  4  1  0
  6  5  1  0
  7  5  2  0
  8  6  1  0
  9  8  1  0
  9 10  1  0
 11  1  1  0
 11  6  2  0
 12 11  1  0
 12 10  1  0
 13  9  1  0
 13 14  1  0
 15 13  1  0
 16 15  1  0
 15 17  1  0
  3 18  1  0
  3 19  1  0
  4 20  1  0
  8 21  1  0
  9 22  1  1
 10 23  1  0
 10 24  1  0
 12 25  1  0
 13 26  1  1
 14 27  1  0
 15 28  1  6
 16 29  1  0
 17 30  1  0
 17 31  1  0
 17 32  1  0
M  END
