
     RDKit          3D

 49 48  0  0  0  0  0  0  0  0999 V2000
   17.1946   35.8104    6.1820 C   0  0  0  0  0  0  0  0  0  0  0  0
   15.7885   36.0455    6.6627 C   0  0  2  0  0  0  0  0  0  0  0  0
   15.2192   37.2853    5.9590 C   0  0  0  0  0  0  0  0  0  0  0  0
   13.7639   37.5554    6.3400 C   0  0  0  0  0  0  0  0  0  0  0  0
   13.3217   38.8829    5.7338 C   0  0  0  0  0  0  0  0  0  0  0  0
   11.8816   39.1131    6.0268 C   0  0  0  0  0  0  0  0  0  0  0  0
   10.9336   38.8263    5.0192 N   0  0  0  0  0  0  0  0  0  0  0  0
    9.5147   39.1085    5.1458 C   0  0  2  0  0  0  0  0  0  0  0  0
    8.7472   37.9013    4.6989 C   0  0  0  0  0  0  0  0  0  0  0  0
   15.7358   36.2037    8.1273 N   0  0  0  0  0  0  0  0  0  0  0  0
   11.5083   39.4914    7.1671 O   0  0  0  0  0  0  0  0  0  0  0  0
    9.1910   40.3562    4.3073 C   0  0  0  0  0  0  0  0  0  0  0  0
    9.6552   40.1273    2.5571 S   0  0  0  0  0  0  0  0  0  0  0  0
    9.3270   36.8012    4.4840 O   0  0  0  0  0  0  0  0  0  0  0  0
   18.1734   35.9238    6.9666 O   0  0  0  0  0  0  0  0  0  0  0  0
   17.4088   35.5053    4.8490 O   0  0  0  0  0  0  0  0  0  0  0  0
    7.3427   37.9985    4.5574 N   0  0  0  0  0  0  0  0  0  0  0  0
    6.4740   36.8300    4.5591 C   0  0  1  0  0  0  0  0  0  0  0  0
    5.2377   37.1468    5.3472 C   0  0  0  0  0  0  0  0  0  0  0  0
    6.1430   36.3968    3.1070 C   0  0  0  0  0  0  0  0  0  0  0  0
    7.3705   35.7937    2.4071 C   0  0  0  0  0  0  0  0  0  0  0  0
    5.6053   37.5785    2.2865 C   0  0  0  0  0  0  0  0  0  0  0  0
    5.1471   38.2054    6.0275 O   0  0  0  0  0  0  0  0  0  0  0  0
    4.1994   36.2399    5.3537 O   0  0  0  0  0  0  0  0  0  0  0  0
   15.1753   35.1620    6.3783 H   0  0  0  0  0  0  0  0  0  0  0  0
   15.8443   38.1677    6.2251 H   0  0  0  0  0  0  0  0  0  0  0  0
   15.2769   37.1452    4.8562 H   0  0  0  0  0  0  0  0  0  0  0  0
   13.6600   37.6086    7.4460 H   0  0  0  0  0  0  0  0  0  0  0  0
   13.1226   36.7300    5.9582 H   0  0  0  0  0  0  0  0  0  0  0  0
   13.9125   39.7156    6.1745 H   0  0  0  0  0  0  0  0  0  0  0  0
   13.4984   38.8844    4.6356 H   0  0  0  0  0  0  0  0  0  0  0  0
   11.2785   38.3703    4.1433 H   0  0  0  0  0  0  0  0  0  0  0  0
    9.2400   39.3179    6.2021 H   0  0  0  0  0  0  0  0  0  0  0  0
   16.3448   37.0033    8.4190 H   0  0  0  0  0  0  0  0  0  0  0  0
   16.1070   35.3345    8.5760 H   0  0  0  0  0  0  0  0  0  0  0  0
    8.1209   40.6358    4.3740 H   0  0  0  0  0  0  0  0  0  0  0  0
    9.7722   41.2145    4.7075 H   0  0  0  0  0  0  0  0  0  0  0  0
   10.9673   39.7401    2.8886 H   0  0  0  0  0  0  0  0  0  0  0  0
   18.3457   35.3569    4.4936 H   0  0  0  0  0  0  0  0  0  0  0  0
    6.9122   38.9399    4.4165 H   0  0  0  0  0  0  0  0  0  0  0  0
    6.9629   35.9812    5.0857 H   0  0  0  0  0  0  0  0  0  0  0  0
    5.3608   35.6059    3.1343 H   0  0  0  0  0  0  0  0  0  0  0  0
    8.2343   35.7254    3.0953 H   0  0  0  0  0  0  0  0  0  0  0  0
    7.1335   34.7766    2.0288 H   0  0  0  0  0  0  0  0  0  0  0  0
    7.6610   36.4234    1.5392 H   0  0  0  0  0  0  0  0  0  0  0  0
    6.3890   38.3476    2.1186 H   0  0  0  0  0  0  0  0  0  0  0  0
    4.7372   38.0487    2.7945 H   0  0  0  0  0  0  0  0  0  0  0  0
    5.2603   37.2182    1.2939 H   0  0  0  0  0  0  0  0  0  0  0  0
    3.3553   36.4186    5.8846 H   0  0  0  0  0  0  0  0  0  0  0  0
  2  1  1  0
  3  2  1  0
  4  3  1  0
  5  4  1  0
  6  5  1  0
  7  6  1  0
  8  7  1  0
  9  8  1  0
  2 10  1  0
 11  6  2  0
  8 12  1  0
 13 12  1  0
 14  9  2  0
 15  1  2  0
 16  1  1  0
 17  9  1  0
 18 17  1  0
 19 18  1  0
 20 18  1  0
 20 21  1  0
 22 20  1  0
 23 19  2  0
 24 19  1  0
  2 25  1  1
  3 26  1  0
  3 27  1  0
  4 28  1  0
  4 29  1  0
  5 30  1  0
  5 31  1  0
  7 32  1  0
  8 33  1  1
 10 34  1  0
 10 35  1  0
 12 36  1  0
 12 37  1  0
 13 38  1  0
 16 39  1  0
 17 40  1  0
 18 41  1  1
 20 42  1  0
 21 43  1  0
 21 44  1  0
 21 45  1  0
 22 46  1  0
 22 47  1  0
 22 48  1  0
 24 49  1  0
M  END
