
     RDKit          3D

 32 33  0  0  0  0  0  0  0  0999 V2000
    7.4189   12.2088   42.2914 N   0  0  0  0  0  0  0  0  0  0  0  0
    7.3663   12.5519   40.9867 C   0  0  0  0  0  0  0  0  0  0  0  0
    6.4783   11.8572   40.1231 N   0  0  0  0  0  0  0  0  0  0  0  0
    8.1502   13.5604   40.5109 N   0  0  0  0  0  0  0  0  0  0  0  0
    9.0127   14.2250   41.3259 C   0  0  0  0  0  0  0  0  0  0  0  0
    9.0847   13.8689   42.6729 C   0  0  0  0  0  0  0  0  0  0  0  0
    9.7335   15.1491   40.8591 O   0  0  0  0  0  0  0  0  0  0  0  0
   10.0186   14.4580   43.5735 N   0  0  0  0  0  0  0  0  0  0  0  0
   10.4279   13.6639   44.7340 C   0  0  2  0  0  0  0  0  0  0  0  0
    9.1760   13.1112   45.4497 C   0  0  0  0  0  0  0  0  0  0  0  0
    8.2533   12.8456   43.1362 C   0  0  0  0  0  0  0  0  0  0  0  0
    8.3080   12.4387   44.4966 N   0  0  0  0  0  0  0  0  0  0  0  0
   11.3443   14.4793   45.6659 C   0  0  1  0  0  0  0  0  0  0  0  0
   11.1550   14.0825   47.0051 O   0  0  0  0  0  0  0  0  0  0  0  0
   12.8311   14.3282   45.2747 C   0  0  1  0  0  0  0  0  0  0  0  0
   13.4871   13.5149   46.2192 O   0  0  0  0  0  0  0  0  0  0  0  0
   12.9749   13.7170   43.8828 C   0  0  0  0  0  0  0  0  0  0  0  0
    6.6967   11.7496   39.1077 H   0  0  0  0  0  0  0  0  0  0  0  0
    5.5943   11.4443   40.4952 H   0  0  0  0  0  0  0  0  0  0  0  0
    8.0950   13.8231   39.5005 H   0  0  0  0  0  0  0  0  0  0  0  0
   10.5364   15.3254   43.3049 H   0  0  0  0  0  0  0  0  0  0  0  0
   11.0099   12.7922   44.3575 H   0  0  0  0  0  0  0  0  0  0  0  0
    9.4592   12.3699   46.2250 H   0  0  0  0  0  0  0  0  0  0  0  0
    8.6123   13.9399   45.9298 H   0  0  0  0  0  0  0  0  0  0  0  0
    7.6644   11.6888   44.8365 H   0  0  0  0  0  0  0  0  0  0  0  0
   11.0730   15.5568   45.5430 H   0  0  0  0  0  0  0  0  0  0  0  0
   10.3028   13.5754   47.0496 H   0  0  0  0  0  0  0  0  0  0  0  0
   13.3101   15.3325   45.2263 H   0  0  0  0  0  0  0  0  0  0  0  0
   14.4581   13.7056   46.1378 H   0  0  0  0  0  0  0  0  0  0  0  0
   12.6499   14.4414   43.1057 H   0  0  0  0  0  0  0  0  0  0  0  0
   12.3444   12.8059   43.8034 H   0  0  0  0  0  0  0  0  0  0  0  0
   14.0292   13.4256   43.6900 H   0  0  0  0  0  0  0  0  0  0  0  0
  2  1  2  0
  3  2  1  0
  4  2  1  0
  5  4  1  0
  6  5  1  0
  7  5  2  0
  8  6  1  0
  9  8  1  0
  9 10  1  0
 11  6  2  0
 11  1  1  0
 12 11  1  0
 12 10  1  0
 13  9  1  0
 13 14  1  0
 15 13  1  0
 16 15  1  0
 15 17  1  0
  3 18  1  0
  3 19  1  0
  4 20  1  0
  8 21  1  0
  9 22  1  6
 10 23  1  0
 10 24  1  0
 12 25  1  0
 13 26  1  1
 14 27  1  0
 15 28  1  6
 16 29  1  0
 17 30  1  0
 17 31  1  0
 17 32  1  0
M  END
