
     RDKit          3D

 38 41  0  0  0  0  0  0  0  0999 V2000
   19.7360   40.6770   39.0769 C   0  0  0  0  0  0  0  0  0  0  0  0
   20.0987   40.0904   37.7903 N   0  0  0  0  0  0  0  0  0  0  0  0
   22.8393   40.7144   39.1595 O   0  0  0  0  0  0  0  0  0  0  0  0
   20.6889   40.0549   40.1040 C   0  0  0  0  0  0  0  0  0  0  0  0
   21.9250   38.7042   37.0164 N   0  0  0  0  0  0  0  0  0  0  0  0
   22.7052   38.1359   40.9630 O   0  0  0  0  0  0  0  0  0  0  0  0
   21.9202   39.6502   39.2792 C   0  0  2  0  0  0  0  0  0  0  0  0
   22.6436   38.4329   39.7397 C   0  0  0  0  0  0  0  0  0  0  0  0
   23.4271   37.7292   38.7139 C   0  0  0  0  0  0  0  0  0  0  0  0
   24.5390   36.9574   39.0478 C   0  0  0  0  0  0  0  0  0  0  0  0
   25.3170   36.3868   38.0325 C   0  0  0  0  0  0  0  0  0  0  0  0
   24.9913   36.6151   36.6831 C   0  0  0  0  0  0  0  0  0  0  0  0
   23.8771   37.3844   36.3444 C   0  0  0  0  0  0  0  0  0  0  0  0
   23.0957   37.9452   37.3532 C   0  0  0  0  0  0  0  0  0  0  0  0
   21.3235   39.3979   37.9432 C   0  0  0  0  0  0  0  0  0  0  0  0
   19.4117   40.3712   36.5663 C   0  0  0  0  0  0  0  0  0  0  0  0
   18.9270   39.3216   35.7703 C   0  0  0  0  0  0  0  0  0  0  0  0
   18.2038   39.5936   34.6096 C   0  0  0  0  0  0  0  0  0  0  0  0
   17.9357   40.9150   34.2497 C   0  0  0  0  0  0  0  0  0  0  0  0
   18.4012   41.9679   35.0416 C   0  0  0  0  0  0  0  0  0  0  0  0
   19.1443   41.7012   36.1914 C   0  0  0  0  0  0  0  0  0  0  0  0
   26.5357   35.5902   38.3803 C   0  0  0  0  0  0  0  0  0  0  0  0
   18.6765   40.4521   39.3262 H   0  0  0  0  0  0  0  0  0  0  0  0
   19.9001   41.7759   39.0529 H   0  0  0  0  0  0  0  0  0  0  0  0
   23.0921   40.9936   40.0789 H   0  0  0  0  0  0  0  0  0  0  0  0
   20.2058   39.1557   40.5481 H   0  0  0  0  0  0  0  0  0  0  0  0
   20.9397   40.7721   40.9154 H   0  0  0  0  0  0  0  0  0  0  0  0
   24.8135   36.8151   40.0865 H   0  0  0  0  0  0  0  0  0  0  0  0
   25.6006   36.1923   35.8937 H   0  0  0  0  0  0  0  0  0  0  0  0
   23.6246   37.5431   35.3036 H   0  0  0  0  0  0  0  0  0  0  0  0
   19.0654   38.2897   36.0596 H   0  0  0  0  0  0  0  0  0  0  0  0
   17.8296   38.7805   34.0009 H   0  0  0  0  0  0  0  0  0  0  0  0
   17.3632   41.1250   33.3554 H   0  0  0  0  0  0  0  0  0  0  0  0
   18.1906   42.9911   34.7585 H   0  0  0  0  0  0  0  0  0  0  0  0
   19.4960   42.5340   36.7838 H   0  0  0  0  0  0  0  0  0  0  0  0
   26.2521   34.6063   38.8111 H   0  0  0  0  0  0  0  0  0  0  0  0
   27.1534   35.4019   37.4763 H   0  0  0  0  0  0  0  0  0  0  0  0
   27.1422   36.1492   39.1231 H   0  0  0  0  0  0  0  0  0  0  0  0
  2  1  1  0
  4  1  1  0
  7  4  1  0
  7  3  1  6
  8  6  2  0
  8  7  1  0
  9  8  1  0
 10  9  2  0
 11 10  1  0
 12 11  2  0
 13 12  1  0
 14 13  2  0
 14  5  1  0
 14  9  1  0
 15  2  1  0
 15  5  2  0
 15  7  1  0
 16  2  1  0
 17 16  2  0
 18 17  1  0
 19 18  2  0
 20 19  1  0
 21 20  2  0
 21 16  1  0
 22 11  1  0
  1 23  1  0
  1 24  1  0
  3 25  1  0
  4 26  1  0
  4 27  1  0
 10 28  1  0
 12 29  1  0
 13 30  1  0
 17 31  1  0
 18 32  1  0
 19 33  1  0
 20 34  1  0
 21 35  1  0
 22 36  1  0
 22 37  1  0
 22 38  1  0
M  END
