
     RDKit          3D

 21 22  0  0  0  0  0  0  0  0999 V2000
   46.1454   18.9609   53.5230 C   0  0  0  0  0  0  0  0  0  0  0  0
   45.8842   20.0430   52.5772 C   0  0  0  0  0  0  0  0  0  0  0  0
   46.5852   19.1947   54.7247 N   0  0  0  0  0  4  0  0  0  0  0  0
   45.9062   17.6251   53.1039 N   0  0  0  0  0  0  0  0  0  0  0  0
   45.3012   19.8305   50.9878 S   0  0  0  0  0  0  0  0  0  0  0  0
   45.3090   21.4790   50.6417 C   0  0  0  0  0  0  0  0  0  0  0  0
   45.7647   22.1897   51.7419 C   0  0  0  0  0  0  0  0  0  0  0  0
   46.0952   21.3897   52.8311 C   0  0  0  0  0  0  0  0  0  0  0  0
   44.9303   22.1210   49.4644 C   0  0  0  0  0  0  0  0  0  0  0  0
   45.0171   23.5206   49.4085 C   0  0  0  0  0  0  0  0  0  0  0  0
   45.4775   24.2469   50.5177 C   0  0  0  0  0  0  0  0  0  0  0  0
   45.8535   23.5831   51.6928 C   0  0  0  0  0  0  0  0  0  0  0  0
   46.5133   24.7161   53.3306 I   0  0  0  0  0  0  0  0  0  0  0  0
   46.7411   20.1602   55.0871 H   0  0  0  0  0  0  0  0  0  0  0  0
   46.7713   18.4060   55.3837 H   0  0  0  0  0  0  0  0  0  0  0  0
   45.9011   17.3557   52.0957 H   0  0  0  0  0  0  0  0  0  0  0  0
   45.7588   16.8671   53.8071 H   0  0  0  0  0  0  0  0  0  0  0  0
   46.4892   21.7779   53.7592 H   0  0  0  0  0  0  0  0  0  0  0  0
   44.5755   21.5547   48.6132 H   0  0  0  0  0  0  0  0  0  0  0  0
   44.7274   24.0420   48.5055 H   0  0  0  0  0  0  0  0  0  0  0  0
   45.5373   25.3261   50.4612 H   0  0  0  0  0  0  0  0  0  0  0  0
  2  1  1  0
  3  1  2  0
  4  1  1  0
  5  2  1  0
  6  5  1  0
  7  6  2  0
  8  7  1  0
  8  2  2  0
  9  6  1  0
 10  9  2  0
 11 10  1  0
 12  7  1  0
 12 11  2  0
 13 12  1  0
  3 14  1  0
  3 15  1  0
  4 16  1  0
  4 17  1  0
  8 18  1  0
  9 19  1  0
 10 20  1  0
 11 21  1  0
M  CHG  1   3   1
M  END
