
     RDKit          3D

 32 33  0  0  0  0  0  0  0  0999 V2000
   13.7928    2.4582   48.7058 N   0  0  0  0  0  0  0  0  0  0  0  0
   13.8776    2.0296   49.9884 C   0  0  0  0  0  0  0  0  0  0  0  0
   12.7832    1.3374   50.5687 N   0  0  0  0  0  0  0  0  0  0  0  0
   15.0050    2.2639   50.7171 N   0  0  0  0  0  0  0  0  0  0  0  0
   16.0644    2.9312   50.1829 C   0  0  0  0  0  0  0  0  0  0  0  0
   15.9863    3.3870   48.8600 C   0  0  0  0  0  0  0  0  0  0  0  0
   17.0916    3.1414   50.8861 O   0  0  0  0  0  0  0  0  0  0  0  0
   17.0382    4.1425   48.2509 N   0  0  0  0  0  0  0  0  0  0  0  0
   16.7137    5.0047   47.1079 C   0  0  2  0  0  0  0  0  0  0  0  0
   15.8141    4.2402   46.1054 C   0  0  0  0  0  0  0  0  0  0  0  0
   14.8191    3.1265   48.1300 C   0  0  0  0  0  0  0  0  0  0  0  0
   14.6978    3.5874   46.7870 N   0  0  0  0  0  0  0  0  0  0  0  0
   18.0146    5.5532   46.4753 C   0  0  1  0  0  0  0  0  0  0  0  0
   18.7022    4.5170   45.8156 O   0  0  0  0  0  0  0  0  0  0  0  0
   17.7537    6.7215   45.5018 C   0  0  1  0  0  0  0  0  0  0  0  0
   18.8751    6.8876   44.6706 O   0  0  0  0  0  0  0  0  0  0  0  0
   16.5206    6.4482   44.6391 C   0  0  0  0  0  0  0  0  0  0  0  0
   11.8772    1.8243   50.7485 H   0  0  0  0  0  0  0  0  0  0  0  0
   12.8725    0.3287   50.8234 H   0  0  0  0  0  0  0  0  0  0  0  0
   15.0586    1.9280   51.7058 H   0  0  0  0  0  0  0  0  0  0  0  0
   17.9810    4.1860   48.7011 H   0  0  0  0  0  0  0  0  0  0  0  0
   16.1231    5.8641   47.4968 H   0  0  0  0  0  0  0  0  0  0  0  0
   15.4028    4.9418   45.3493 H   0  0  0  0  0  0  0  0  0  0  0  0
   16.4105    3.4648   45.5785 H   0  0  0  0  0  0  0  0  0  0  0  0
   13.8310    3.3701   46.2455 H   0  0  0  0  0  0  0  0  0  0  0  0
   18.6342    5.9425   47.3205 H   0  0  0  0  0  0  0  0  0  0  0  0
   19.2724    4.0626   46.4896 H   0  0  0  0  0  0  0  0  0  0  0  0
   17.5645    7.6518   46.0859 H   0  0  0  0  0  0  0  0  0  0  0  0
   19.3854    6.0364   44.7028 H   0  0  0  0  0  0  0  0  0  0  0  0
   16.6479    5.5074   44.0619 H   0  0  0  0  0  0  0  0  0  0  0  0
   16.3698    7.2841   43.9235 H   0  0  0  0  0  0  0  0  0  0  0  0
   15.6106    6.3702   45.2706 H   0  0  0  0  0  0  0  0  0  0  0  0
  2  1  2  0
  3  2  1  0
  4  2  1  0
  5  4  1  0
  6  5  1  0
  7  5  2  0
  8  6  1  0
  9  8  1  0
  9 10  1  0
 11  1  1  0
 11  6  2  0
 12 11  1  0
 12 10  1  0
 13  9  1  0
 13 14  1  0
 15 13  1  0
 16 15  1  0
 15 17  1  0
  3 18  1  0
  3 19  1  0
  4 20  1  0
  8 21  1  0
  9 22  1  1
 10 23  1  0
 10 24  1  0
 12 25  1  0
 13 26  1  1
 14 27  1  0
 15 28  1  1
 16 29  1  0
 17 30  1  0
 17 31  1  0
 17 32  1  0
M  END
