
     RDKit          3D

 32 33  0  0  0  0  0  0  0  0999 V2000
   14.9150    3.3349   49.3390 N   0  0  0  0  0  0  0  0  0  0  0  0
   14.9998    2.9063   50.6217 C   0  0  0  0  0  0  0  0  0  0  0  0
   13.9055    2.2141   51.2019 N   0  0  0  0  0  0  0  0  0  0  0  0
   16.1272    3.1406   51.3504 N   0  0  0  0  0  0  0  0  0  0  0  0
   17.1866    3.8079   50.8162 C   0  0  0  0  0  0  0  0  0  0  0  0
   17.1085    4.2636   49.4933 C   0  0  0  0  0  0  0  0  0  0  0  0
   18.2138    4.0181   51.5194 O   0  0  0  0  0  0  0  0  0  0  0  0
   18.1604    5.0192   48.8842 N   0  0  0  0  0  0  0  0  0  0  0  0
   17.8359    5.8813   47.7412 C   0  0  2  0  0  0  0  0  0  0  0  0
   16.9363    5.1169   46.7387 C   0  0  0  0  0  0  0  0  0  0  0  0
   15.9413    4.0031   48.7633 C   0  0  0  0  0  0  0  0  0  0  0  0
   15.8200    4.4641   47.4203 N   0  0  0  0  0  0  0  0  0  0  0  0
   19.1369    6.4298   47.1085 C   0  0  1  0  0  0  0  0  0  0  0  0
   20.2571    5.8716   47.7528 O   0  0  0  0  0  0  0  0  0  0  0  0
   19.2130    6.1694   45.5896 C   0  0  1  0  0  0  0  0  0  0  0  0
   18.0873    6.7372   44.9680 O   0  0  0  0  0  0  0  0  0  0  0  0
   20.4821    6.7809   44.9939 C   0  0  0  0  0  0  0  0  0  0  0  0
   13.2697    2.6908   51.8794 H   0  0  0  0  0  0  0  0  0  0  0  0
   13.7231    1.2156   50.9567 H   0  0  0  0  0  0  0  0  0  0  0  0
   16.1809    2.8046   52.3390 H   0  0  0  0  0  0  0  0  0  0  0  0
   19.1032    5.0627   49.3344 H   0  0  0  0  0  0  0  0  0  0  0  0
   17.2454    6.7408   48.1301 H   0  0  0  0  0  0  0  0  0  0  0  0
   16.5250    5.8184   45.9826 H   0  0  0  0  0  0  0  0  0  0  0  0
   17.5327    4.3415   46.2118 H   0  0  0  0  0  0  0  0  0  0  0  0
   14.9532    4.2467   46.8788 H   0  0  0  0  0  0  0  0  0  0  0  0
   19.1199    7.5365   47.2667 H   0  0  0  0  0  0  0  0  0  0  0  0
   20.0824    5.8991   48.7297 H   0  0  0  0  0  0  0  0  0  0  0  0
   19.2427    5.0704   45.4057 H   0  0  0  0  0  0  0  0  0  0  0  0
   17.5574    5.9866   44.5917 H   0  0  0  0  0  0  0  0  0  0  0  0
   20.5152    7.8752   45.1836 H   0  0  0  0  0  0  0  0  0  0  0  0
   20.5013    6.6118   43.8963 H   0  0  0  0  0  0  0  0  0  0  0  0
   21.3867    6.3063   45.4290 H   0  0  0  0  0  0  0  0  0  0  0  0
  2  1  2  0
  3  2  1  0
  4  2  1  0
  5  4  1  0
  6  5  1  0
  7  5  2  0
  8  6  1  0
  9  8  1  0
  9 10  1  0
 11  1  1  0
 11  6  2  0
 12 11  1  0
 12 10  1  0
 13  9  1  0
 13 14  1  0
 15 13  1  0
 16 15  1  0
 15 17  1  0
  3 18  1  0
  3 19  1  0
  4 20  1  0
  8 21  1  0
  9 22  1  1
 10 23  1  0
 10 24  1  0
 12 25  1  0
 13 26  1  6
 14 27  1  0
 15 28  1  1
 16 29  1  0
 17 30  1  0
 17 31  1  0
 17 32  1  0
M  END
