
     RDKit          3D

 49 52  0  0  0  0  0  0  0  0999 V2000
   31.0024  -40.6735   -3.3885 Cl  0  0  0  0  0  0  0  0  0  0  0  0
   37.7005  -37.7720   -4.4232 N   0  0  0  0  0  0  0  0  0  0  0  0
   37.7230  -38.3431   -5.7813 C   0  0  0  0  0  0  0  0  0  0  0  0
   38.8196  -36.8416   -4.1973 C   0  0  0  0  0  0  0  0  0  0  0  0
   37.6530  -38.8643   -3.4367 C   0  0  0  0  0  0  0  0  0  0  0  0
   36.3379  -38.8997   -6.0955 C   0  0  0  0  0  0  0  0  0  0  0  0
   38.7014  -35.6862   -5.1620 C   0  0  0  0  0  0  0  0  0  0  0  0
   36.4215  -39.6942   -3.6841 C   0  0  0  0  0  0  0  0  0  0  0  0
   35.8186  -39.7236   -4.9936 N   0  0  0  0  0  0  0  0  0  0  0  0
   38.1881  -34.4701   -4.8865 N   0  0  0  0  0  0  0  0  0  0  0  0
   38.9996  -35.7199   -6.5047 C   0  0  0  0  0  0  0  0  0  0  0  0
   35.9298  -40.3721   -2.7430 O   0  0  0  0  0  0  0  0  0  0  0  0
   34.5904  -40.4306   -5.2016 C   0  0  0  0  0  0  0  0  0  0  0  0
   37.7522  -33.9392   -3.5968 C   0  0  0  0  0  0  0  0  0  0  0  0
   38.2098  -33.7895   -6.0479 C   0  0  0  0  0  0  0  0  0  0  0  0
   38.6971  -34.5296   -7.0624 N   0  0  0  0  0  0  0  0  0  0  0  0
   33.5224  -40.2467   -4.3161 C   0  0  0  0  0  0  0  0  0  0  0  0
   34.4380  -41.2839   -6.3032 C   0  0  0  0  0  0  0  0  0  0  0  0
   36.2689  -34.1103   -3.3826 C   0  0  0  0  0  0  0  0  0  0  0  0
   32.3161  -40.9155   -4.5181 C   0  0  0  0  0  0  0  0  0  0  0  0
   33.2234  -41.9458   -6.5122 C   0  0  0  0  0  0  0  0  0  0  0  0
   35.6727  -35.3441   -3.6853 C   0  0  0  0  0  0  0  0  0  0  0  0
   35.4893  -33.0970   -2.7965 C   0  0  0  0  0  0  0  0  0  0  0  0
   32.1628  -41.7644   -5.6186 C   0  0  0  0  0  0  0  0  0  0  0  0
   34.3141  -35.5523   -3.4458 C   0  0  0  0  0  0  0  0  0  0  0  0
   34.1298  -33.3105   -2.5487 C   0  0  0  0  0  0  0  0  0  0  0  0
   33.5395  -34.5353   -2.8812 C   0  0  0  0  0  0  0  0  0  0  0  0
   32.1429  -34.7565   -2.6334 C   0  0  0  0  0  0  0  0  0  0  0  0
   31.0189  -34.9354   -2.4309 N   0  0  0  0  0  0  0  0  0  0  0  0
   38.4904  -39.1460   -5.8698 H   0  0  0  0  0  0  0  0  0  0  0  0
   37.9551  -37.5720   -6.5444 H   0  0  0  0  0  0  0  0  0  0  0  0
   38.7934  -36.4342   -3.1635 H   0  0  0  0  0  0  0  0  0  0  0  0
   39.7996  -37.3547   -4.3241 H   0  0  0  0  0  0  0  0  0  0  0  0
   37.5952  -38.4432   -2.4095 H   0  0  0  0  0  0  0  0  0  0  0  0
   38.5596  -39.5060   -3.5055 H   0  0  0  0  0  0  0  0  0  0  0  0
   35.6492  -38.0447   -6.2697 H   0  0  0  0  0  0  0  0  0  0  0  0
   36.3883  -39.5047   -7.0268 H   0  0  0  0  0  0  0  0  0  0  0  0
   39.4130  -36.5581   -7.0498 H   0  0  0  0  0  0  0  0  0  0  0  0
   37.9892  -32.8549   -3.5327 H   0  0  0  0  0  0  0  0  0  0  0  0
   38.3295  -34.4417   -2.7906 H   0  0  0  0  0  0  0  0  0  0  0  0
   37.8729  -32.7670   -6.1609 H   0  0  0  0  0  0  0  0  0  0  0  0
   33.6240  -39.5780   -3.4748 H   0  0  0  0  0  0  0  0  0  0  0  0
   35.2543  -41.4256   -7.0002 H   0  0  0  0  0  0  0  0  0  0  0  0
   33.1053  -42.6015   -7.3652 H   0  0  0  0  0  0  0  0  0  0  0  0
   36.2589  -36.1479   -4.1133 H   0  0  0  0  0  0  0  0  0  0  0  0
   35.9350  -32.1500   -2.5202 H   0  0  0  0  0  0  0  0  0  0  0  0
   31.2262  -42.2820   -5.7822 H   0  0  0  0  0  0  0  0  0  0  0  0
   33.8687  -36.5071   -3.6983 H   0  0  0  0  0  0  0  0  0  0  0  0
   33.5482  -32.5301   -2.0752 H   0  0  0  0  0  0  0  0  0  0  0  0
  3  2  1  0
  4  2  1  0
  5  2  1  0
  6  3  1  0
  7  4  1  0
  8  5  1  0
  9  8  1  0
  9  6  1  0
 10  7  1  0
 11  7  2  0
 12  8  2  0
 13  9  1  0
 14 10  1  0
 15 10  1  0
 16 15  2  0
 16 11  1  0
 17 13  2  0
 18 13  1  0
 19 14  1  0
 20  1  1  0
 20 17  1  0
 21 18  2  0
 22 19  2  0
 23 19  1  0
 24 20  2  0
 24 21  1  0
 25 22  1  0
 26 23  2  0
 27 26  1  0
 27 25  2  0
 28 27  1  0
 29 28  3  0
  3 30  1  0
  3 31  1  0
  4 32  1  0
  4 33  1  0
  5 34  1  0
  5 35  1  0
  6 36  1  0
  6 37  1  0
 11 38  1  0
 14 39  1  0
 14 40  1  0
 15 41  1  0
 17 42  1  0
 18 43  1  0
 21 44  1  0
 22 45  1  0
 23 46  1  0
 24 47  1  0
 25 48  1  0
 26 49  1  0
M  END
