
     RDKit          3D

 15 16  0  0  0  0  0  0  0  0999 V2000
  -16.9052  -16.0385  -12.2955 N   0  0  0  0  0  0  0  0  0  0  0  0
  -18.1840  -15.6984  -11.9393 C   0  0  0  0  0  0  0  0  0  0  0  0
  -18.4710  -15.3034  -10.6612 N   0  0  0  0  0  0  0  0  0  0  0  0
  -17.4599  -15.2543   -9.7603 C   0  0  0  0  0  0  0  0  0  0  0  0
  -16.1849  -15.5837  -10.0830 C   0  0  0  0  0  0  0  0  0  0  0  0
  -15.8819  -15.9961  -11.3916 C   0  0  0  0  0  0  0  0  0  0  0  0
  -14.5635  -16.3585  -11.7935 N   0  0  0  0  0  0  0  0  0  0  0  0
  -15.3901  -15.4401   -9.0018 N   0  0  0  0  0  0  0  0  0  0  0  0
  -16.2517  -15.0081   -8.0372 C   0  0  0  0  0  0  0  0  0  0  0  0
  -17.5302  -14.8838   -8.4739 N   0  0  0  0  0  0  0  0  0  0  0  0
  -18.9744  -15.7432  -12.6757 H   0  0  0  0  0  0  0  0  0  0  0  0
  -14.0911  -17.1953  -11.3849 H   0  0  0  0  0  0  0  0  0  0  0  0
  -14.0544  -15.7880  -12.5045 H   0  0  0  0  0  0  0  0  0  0  0  0
  -15.9450  -14.7872   -7.0235 H   0  0  0  0  0  0  0  0  0  0  0  0
  -18.3685  -14.5733   -7.9348 H   0  0  0  0  0  0  0  0  0  0  0  0
  2  1  2  0
  3  2  1  0
  4  3  2  0
  5  4  1  0
  6  1  1  0
  6  5  2  0
  7  6  1  0
  8  5  1  0
  9  8  2  0
 10  4  1  0
 10  9  1  0
  2 11  1  0
  7 12  1  0
  7 13  1  0
  9 14  1  0
 10 15  1  0
M  END
