
     RDKit          3D

 15 16  0  0  0  0  0  0  0  0999 V2000
  -17.0748  -15.4868  -11.5401 N   0  0  0  0  0  0  0  0  0  0  0  0
  -18.3536  -15.1467  -11.1839 C   0  0  0  0  0  0  0  0  0  0  0  0
  -18.6406  -14.7518   -9.9059 N   0  0  0  0  0  0  0  0  0  0  0  0
  -17.6296  -14.7027   -9.0049 C   0  0  0  0  0  0  0  0  0  0  0  0
  -16.3545  -15.0320   -9.3277 C   0  0  0  0  0  0  0  0  0  0  0  0
  -16.0515  -15.4444  -10.6363 C   0  0  0  0  0  0  0  0  0  0  0  0
  -14.7331  -15.8068  -11.0382 N   0  0  0  0  0  0  0  0  0  0  0  0
  -15.5598  -14.8885   -8.2464 N   0  0  0  0  0  0  0  0  0  0  0  0
  -16.4213  -14.4565   -7.2819 C   0  0  0  0  0  0  0  0  0  0  0  0
  -17.6998  -14.3321   -7.7186 N   0  0  0  0  0  0  0  0  0  0  0  0
  -19.1440  -15.1915  -11.9204 H   0  0  0  0  0  0  0  0  0  0  0  0
  -14.3614  -16.7645  -10.8509 H   0  0  0  0  0  0  0  0  0  0  0  0
  -14.1227  -15.1148  -11.5267 H   0  0  0  0  0  0  0  0  0  0  0  0
  -16.1146  -14.2356   -6.2681 H   0  0  0  0  0  0  0  0  0  0  0  0
  -18.5381  -14.0216   -7.1794 H   0  0  0  0  0  0  0  0  0  0  0  0
  2  1  2  0
  3  2  1  0
  4  3  2  0
  5  4  1  0
  6  1  1  0
  6  5  2  0
  7  6  1  0
  8  5  1  0
  9  8  2  0
 10  4  1  0
 10  9  1  0
  2 11  1  0
  7 12  1  0
  7 13  1  0
  9 14  1  0
 10 15  1  0
M  END
