
     RDKit          3D

 39 42  0  0  0  0  0  0  0  0999 V2000
   48.5960   27.3434  -19.6056 C   0  0  0  0  0  0  0  0  0  0  0  0
   47.6505   26.4417  -17.8373 N   0  0  0  0  0  0  0  0  0  0  0  0
   51.8196   30.8079  -17.8065 O   0  0  0  0  0  0  0  0  0  0  0  0
   48.5465   27.3546  -18.2515 C   0  0  0  0  0  0  0  0  0  0  0  0
   47.7331   26.4278  -20.0924 N   0  0  0  0  0  0  0  0  0  0  0  0
   47.1565   25.9049  -18.9785 C   0  0  0  0  0  0  0  0  0  0  0  0
   50.9022   29.9163  -15.9737 N   0  0  0  0  0  0  0  0  0  0  0  0
   49.4468   28.1914  -20.3187 C   0  0  0  0  0  0  0  0  0  0  0  0
   49.4826   28.1588  -21.7193 C   0  0  0  0  0  0  0  0  0  0  0  0
   50.3351   29.0083  -22.4208 C   0  0  0  0  0  0  0  0  0  0  0  0
   51.1561   29.8947  -21.7356 C   0  0  0  0  0  0  0  0  0  0  0  0
   51.1364   29.9403  -20.3516 C   0  0  0  0  0  0  0  0  0  0  0  0
   50.2845   29.0978  -19.5940 C   0  0  0  0  0  0  0  0  0  0  0  0
   49.3401   28.2134  -17.4868 C   0  0  0  0  0  0  0  0  0  0  0  0
   50.2304   29.1132  -18.1541 C   0  0  0  0  0  0  0  0  0  0  0  0
   51.0123   29.9745  -17.3284 C   0  0  0  0  0  0  0  0  0  0  0  0
   50.0581   29.0589  -15.3514 C   0  0  0  0  0  0  0  0  0  0  0  0
   49.2648   28.1981  -16.0919 C   0  0  0  0  0  0  0  0  0  0  0  0
   46.1090   24.7996  -19.0121 C   0  0  0  0  0  0  0  0  0  0  0  0
   45.1594   24.9719  -17.8153 C   0  0  0  0  0  0  0  0  0  0  0  0
   45.2999   24.8696  -20.3239 C   0  0  0  0  0  0  0  0  0  0  0  0
   46.7919   23.4184  -18.9303 C   0  0  0  0  0  0  0  0  0  0  0  0
   51.9859   30.7261  -22.4129 F   0  0  0  0  0  0  0  0  0  0  0  0
   47.3950   26.1920  -16.8579 H   0  0  0  0  0  0  0  0  0  0  0  0
   51.4841   30.5532  -15.3829 H   0  0  0  0  0  0  0  0  0  0  0  0
   48.8511   27.4758  -22.2747 H   0  0  0  0  0  0  0  0  0  0  0  0
   50.3564   28.9777  -23.5026 H   0  0  0  0  0  0  0  0  0  0  0  0
   51.8197   30.6579  -19.9554 H   0  0  0  0  0  0  0  0  0  0  0  0
   50.0005   29.0463  -14.2701 H   0  0  0  0  0  0  0  0  0  0  0  0
   48.6014   27.5298  -15.5612 H   0  0  0  0  0  0  0  0  0  0  0  0
   45.3079   25.9637  -17.3358 H   0  0  0  0  0  0  0  0  0  0  0  0
   45.3438   24.1835  -17.0535 H   0  0  0  0  0  0  0  0  0  0  0  0
   44.1002   24.8960  -18.1441 H   0  0  0  0  0  0  0  0  0  0  0  0
   44.8941   25.8931  -20.4776 H   0  0  0  0  0  0  0  0  0  0  0  0
   45.9436   24.6164  -21.1941 H   0  0  0  0  0  0  0  0  0  0  0  0
   44.4560   24.1482  -20.3202 H   0  0  0  0  0  0  0  0  0  0  0  0
   46.8301   22.9431  -19.9346 H   0  0  0  0  0  0  0  0  0  0  0  0
   46.2353   22.7433  -18.2447 H   0  0  0  0  0  0  0  0  0  0  0  0
   47.8308   23.5125  -18.5462 H   0  0  0  0  0  0  0  0  0  0  0  0
  4  2  1  0
  4  1  2  0
  5  1  1  0
  6  5  2  0
  6  2  1  0
  8  1  1  0
  9  8  2  0
 10  9  1  0
 11 10  2  0
 12 11  1  0
 13 12  2  0
 13  8  1  0
 14  4  1  0
 15 14  2  0
 15 13  1  0
 16 15  1  0
 16  3  2  0
 16  7  1  0
 17  7  1  0
 18 14  1  0
 18 17  2  0
 19  6  1  0
 19 20  1  0
 21 19  1  0
 22 19  1  0
 23 11  1  0
  2 24  1  0
  7 25  1  0
  9 26  1  0
 10 27  1  0
 12 28  1  0
 17 29  1  0
 18 30  1  0
 20 31  1  0
 20 32  1  0
 20 33  1  0
 21 34  1  0
 21 35  1  0
 21 36  1  0
 22 37  1  0
 22 38  1  0
 22 39  1  0
M  END
