
     RDKit          3D

 37 39  0  0  0  0  0  0  0  0999 V2000
   41.8208  -13.4701   -9.9182 P   0  0  0  0  0  0  0  0  0  0  0  0
   41.7503  -11.9702  -10.8218 S   0  0  0  0  0  0  0  0  0  0  0  0
   44.3564  -13.6600  -10.1654 C   0  0  0  0  0  0  0  0  0  0  0  0
   43.1745  -14.3954  -10.3286 O   0  0  0  0  0  0  0  0  0  0  0  0
   45.5077  -14.5697  -10.5894 C   0  0  1  0  0  0  0  0  0  0  0  0
   46.5685  -13.7889  -11.0785 O   0  0  0  0  0  0  0  0  0  0  0  0
   46.0560  -15.4458   -9.4694 C   0  0  1  0  0  0  0  0  0  0  0  0
   45.2891  -16.6064   -9.2756 O   0  0  0  0  0  0  0  0  0  0  0  0
   47.4409  -15.7408   -9.9973 C   0  0  1  0  0  0  0  0  0  0  0  0
   47.4041  -16.7835  -10.9439 O   0  0  0  0  0  0  0  0  0  0  0  0
   47.7669  -14.4377  -10.7248 C   0  0  2  0  0  0  0  0  0  0  0  0
   51.0138  -10.5074  -11.0769 N   0  0  0  0  0  0  0  0  0  0  0  0
   50.3675  -11.1945  -12.0736 C   0  0  0  0  0  0  0  0  0  0  0  0
   49.5237  -12.2255  -11.7618 N   0  0  0  0  0  0  0  0  0  0  0  0
   49.3359  -12.5318  -10.4455 C   0  0  0  0  0  0  0  0  0  0  0  0
   49.9390  -11.8590   -9.4445 C   0  0  0  0  0  0  0  0  0  0  0  0
   50.8232  -10.8194   -9.7545 C   0  0  0  0  0  0  0  0  0  0  0  0
   51.5365  -10.1177   -8.7362 N   0  0  0  0  0  0  0  0  0  0  0  0
   49.5640  -12.3663   -8.2421 N   0  0  0  0  0  0  0  0  0  0  0  0
   48.7121  -13.3761   -8.5796 C   0  0  0  0  0  0  0  0  0  0  0  0
   48.5797  -13.5149   -9.9311 N   0  0  0  0  0  0  0  0  0  0  0  0
   41.8060  -13.2142   -8.2459 O   0  0  0  0  0  0  0  0  0  0  0  0
   40.5133  -14.4245  -10.3531 O   0  0  0  0  0  0  0  0  0  0  0  0
   44.4653  -13.3359   -9.1073 H   0  0  0  0  0  0  0  0  0  0  0  0
   44.3842  -12.7547  -10.8139 H   0  0  0  0  0  0  0  0  0  0  0  0
   45.1628  -15.2179  -11.4299 H   0  0  0  0  0  0  0  0  0  0  0  0
   46.1237  -14.8667   -8.5196 H   0  0  0  0  0  0  0  0  0  0  0  0
   45.6531  -17.0494   -8.4654 H   0  0  0  0  0  0  0  0  0  0  0  0
   48.1657  -15.9745   -9.1836 H   0  0  0  0  0  0  0  0  0  0  0  0
   48.3244  -16.8730  -11.3052 H   0  0  0  0  0  0  0  0  0  0  0  0
   48.3236  -14.6773  -11.6591 H   0  0  0  0  0  0  0  0  0  0  0  0
   50.5345  -10.9283  -13.1082 H   0  0  0  0  0  0  0  0  0  0  0  0
   52.1997   -9.3531   -8.9921 H   0  0  0  0  0  0  0  0  0  0  0  0
   51.4062  -10.3558   -7.7278 H   0  0  0  0  0  0  0  0  0  0  0  0
   48.2153  -13.9962   -7.8469 H   0  0  0  0  0  0  0  0  0  0  0  0
   42.4743  -12.5015   -8.0828 H   0  0  0  0  0  0  0  0  0  0  0  0
   40.8713  -15.0563  -11.0269 H   0  0  0  0  0  0  0  0  0  0  0  0
  2  1  2  0
  4  1  1  0
  4  3  1  0
  5  3  1  0
  6  5  1  0
  7  5  1  0
  7  8  1  0
  9  7  1  0
  9 10  1  0
 11  9  1  0
 11  6  1  0
 13 12  2  0
 14 13  1  0
 15 14  2  0
 16 15  1  0
 17 16  2  0
 17 12  1  0
 18 17  1  0
 19 16  1  0
 20 19  2  0
 21 20  1  0
 11 21  1  0
 21 15  1  0
 22  1  1  0
 23  1  1  0
  3 24  1  0
  3 25  1  0
  5 26  1  6
  7 27  1  1
  8 28  1  0
  9 29  1  1
 10 30  1  0
 11 31  1  6
 13 32  1  0
 18 33  1  0
 18 34  1  0
 20 35  1  0
 22 36  1  0
 23 37  1  0
M  END
