
     RDKit          3D

 60 62  0  0  0  0  0  0  0  0999 V2000
    1.9869    0.9819   26.5639 P   0  0  2  0  0  0  0  0  0  0  0  0
    2.8731   -1.1997   25.0006 P   0  0  2  0  0  0  0  0  0  0  0  0
    7.1517    1.6469   22.9557 C   0  0  0  0  0  0  0  0  0  0  0  0
    6.9295    2.4215   21.8053 O   0  0  0  0  0  0  0  0  0  0  0  0
    6.2415    0.4136   22.9576 C   0  0  1  0  0  0  0  0  0  0  0  0
    4.8907    0.8671   22.8799 O   0  0  0  0  0  0  0  0  0  0  0  0
    6.6077   -0.5431   21.7858 C   0  0  1  0  0  0  0  0  0  0  0  0
    7.8703   -1.1133   22.0247 O   0  0  0  0  0  0  0  0  0  0  0  0
    5.5622   -1.6630   21.6400 C   0  0  2  0  0  0  0  0  0  0  0  0
    5.8022   -2.3940   20.4684 O   0  0  0  0  0  0  0  0  0  0  0  0
    4.1570   -1.0370   21.5985 C   0  0  1  0  0  0  0  0  0  0  0  0
    3.1506   -2.0136   21.4845 O   0  0  0  0  0  0  0  0  0  0  0  0
    3.9689   -0.2113   22.8736 C   0  0  1  0  0  0  0  0  0  0  0  0
    5.9135    4.1505   28.6756 C   0  0  1  0  0  0  0  0  0  0  0  0
    5.2809    4.7332   29.8813 N   0  0  0  0  0  0  0  0  0  0  0  0
    1.1384    0.1490   27.4949 O   0  0  0  0  0  0  0  0  0  0  0  0
    1.9234   -2.2033   24.3922 O   0  0  0  0  0  0  0  0  0  0  0  0
    4.0054    4.3695   30.2365 C   0  0  0  0  0  0  0  0  0  0  0  0
    6.8280    2.9570   29.0117 C   0  0  2  0  0  0  0  0  0  0  0  0
    3.3599    3.5282   29.5527 O   0  0  0  0  0  0  0  0  0  0  0  0
    1.2432    2.4552   26.2648 O   0  0  0  0  0  0  0  0  0  0  0  0
    3.4470   -1.7474   26.4818 O   0  0  0  0  0  0  0  0  0  0  0  0
    8.1220    3.2217   28.5210 O   0  0  0  0  0  0  0  0  0  0  0  0
    6.1664    1.8209   28.2445 C   0  0  2  0  0  0  0  0  0  0  0  0
    3.4196    4.9117   31.3381 N   0  0  0  0  0  0  0  0  0  0  0  0
    2.0946    0.2955   25.0310 O   0  0  0  0  0  0  0  0  0  0  0  0
    4.2145   -1.0419   23.9958 O   0  0  0  0  0  0  0  0  0  0  0  0
    7.0716    0.8434   27.7914 O   0  0  0  0  0  0  0  0  0  0  0  0
    4.0675    5.8156   32.1161 C   0  0  0  0  0  0  0  0  0  0  0  0
    5.4724    2.5914   27.1241 C   0  0  2  0  0  0  0  0  0  0  0  0
    3.4921    6.2939   33.1309 O   0  0  0  0  0  0  0  0  0  0  0  0
    4.9300    3.7278   27.7522 O   0  0  0  0  0  0  0  0  0  0  0  0
    5.3667    6.2012   31.7849 C   0  0  0  0  0  0  0  0  0  0  0  0
    4.3883    1.8193   26.3672 C   0  0  0  0  0  0  0  0  0  0  0  0
    3.4824    1.2789   27.2938 O   0  0  0  0  0  0  0  0  0  0  0  0
    5.9609    5.6393   30.6535 C   0  0  0  0  0  0  0  0  0  0  0  0
    6.9659    2.2508   23.8741 H   0  0  0  0  0  0  0  0  0  0  0  0
    8.2175    1.3348   22.9797 H   0  0  0  0  0  0  0  0  0  0  0  0
    6.1465    3.0016   21.9948 H   0  0  0  0  0  0  0  0  0  0  0  0
    6.4199   -0.1071   23.9261 H   0  0  0  0  0  0  0  0  0  0  0  0
    6.6276    0.0449   20.8370 H   0  0  0  0  0  0  0  0  0  0  0  0
    8.2237   -1.4122   21.1463 H   0  0  0  0  0  0  0  0  0  0  0  0
    5.6613   -2.3464   22.5174 H   0  0  0  0  0  0  0  0  0  0  0  0
    5.3368   -3.2653   20.5686 H   0  0  0  0  0  0  0  0  0  0  0  0
    4.0799   -0.3621   20.7170 H   0  0  0  0  0  0  0  0  0  0  0  0
    3.5819   -2.9068   21.5197 H   0  0  0  0  0  0  0  0  0  0  0  0
    2.9454    0.2203   22.8239 H   0  0  0  0  0  0  0  0  0  0  0  0
    6.5183    4.9180   28.1422 H   0  0  0  0  0  0  0  0  0  0  0  0
    6.8532    2.7430   30.1062 H   0  0  0  0  0  0  0  0  0  0  0  0
    0.3582    2.2197   25.8875 H   0  0  0  0  0  0  0  0  0  0  0  0
    2.9568   -1.2201   27.1615 H   0  0  0  0  0  0  0  0  0  0  0  0
    8.2354    4.2077   28.5376 H   0  0  0  0  0  0  0  0  0  0  0  0
    5.4152    1.3333   28.9037 H   0  0  0  0  0  0  0  0  0  0  0  0
    2.4468    4.6239   31.5933 H   0  0  0  0  0  0  0  0  0  0  0  0
    7.6101    1.2301   27.0528 H   0  0  0  0  0  0  0  0  0  0  0  0
    6.2201    2.9290   26.3667 H   0  0  0  0  0  0  0  0  0  0  0  0
    5.9069    6.9184   32.3903 H   0  0  0  0  0  0  0  0  0  0  0  0
    3.9071    2.5262   25.6513 H   0  0  0  0  0  0  0  0  0  0  0  0
    4.8685    0.9988   25.7944 H   0  0  0  0  0  0  0  0  0  0  0  0
    6.9703    5.9333   30.3927 H   0  0  0  0  0  0  0  0  0  0  0  0
  4  3  1  0
  5  3  1  0
  6  5  1  0
  7  5  1  0
  7  8  1  0
  9  7  1  0
  9 10  1  0
 11  9  1  0
 11 12  1  0
 13 11  1  0
 13  6  1  0
 14 15  1  0
 16  1  2  0
 17  2  2  0
 18 15  1  0
 19 14  1  0
 20 18  2  0
  1 21  1  6
  2 22  1  1
 19 23  1  0
 24 19  1  0
 25 18  1  0
 26  2  1  0
 26  1  1  0
 13 27  1  0
 27  2  1  0
 24 28  1  0
 29 25  1  0
 30 24  1  0
 31 29  2  0
 32 30  1  0
 32 14  1  0
 33 29  1  0
 30 34  1  0
 35 34  1  0
 35  1  1  0
 36 33  2  0
 36 15  1  0
  3 37  1  0
  3 38  1  0
  4 39  1  0
  5 40  1  1
  7 41  1  6
  8 42  1  0
  9 43  1  1
 10 44  1  0
 11 45  1  6
 12 46  1  0
 13 47  1  1
 14 48  1  6
 19 49  1  1
 21 50  1  0
 22 51  1  0
 23 52  1  0
 24 53  1  1
 25 54  1  0
 28 55  1  0
 30 56  1  6
 33 57  1  0
 34 58  1  0
 34 59  1  0
 36 60  1  0
M  END
