
     RDKit          3D

 79 82  0  0  0  0  0  0  0  0999 V2000
   17.0708   25.5823   18.8619 C   0  0  1  0  0  0  0  0  0  0  0  0
   17.8058   24.4543   18.4118 O   0  0  0  0  0  0  0  0  0  0  0  0
   16.9367   25.5615   16.5005 C   0  0  0  0  0  0  0  0  0  0  0  0
    6.2469   14.0986   15.4499 O   0  0  0  0  0  0  0  0  0  0  0  0
    6.3224   15.0451   14.4204 C   0  0  0  0  0  0  0  0  0  0  0  0
   14.8653   24.6901   19.1879 C   0  0  1  0  0  0  0  0  0  0  0  0
   14.8071   25.5628   17.9276 C   0  0  0  0  0  0  0  0  0  0  0  0
   15.0966   23.3376   18.8395 O   0  0  0  0  0  0  0  0  0  0  0  0
   17.5636   24.2919   17.0304 C   0  0  0  0  0  0  0  0  0  0  0  0
   16.2307   26.1154   17.7136 C   0  0  1  0  0  0  0  0  0  0  0  0
   16.0815   25.1742   19.9469 C   0  0  0  0  0  0  0  0  0  0  0  0
   14.1499   22.5629   18.2052 C   0  0  0  0  0  0  0  0  0  0  0  0
   14.5811   21.3372   17.6513 N   0  0  0  0  0  0  0  0  0  0  0  0
   12.9549   22.9496   18.1066 O   0  0  0  0  0  0  0  0  0  0  0  0
   13.6977   20.4352   16.9340 C   0  0  1  0  0  0  0  0  0  0  0  0
   14.3793   20.0691   15.5965 C   0  0  0  0  0  0  0  0  0  0  0  0
   14.6696   21.3115   14.7750 C   0  0  0  0  0  0  0  0  0  0  0  0
   13.6195   22.0205   14.1656 C   0  0  0  0  0  0  0  0  0  0  0  0
   13.8793   23.1716   13.4116 C   0  0  0  0  0  0  0  0  0  0  0  0
   15.1899   23.6333   13.2618 C   0  0  0  0  0  0  0  0  0  0  0  0
   16.2409   22.9439   13.8727 C   0  0  0  0  0  0  0  0  0  0  0  0
   15.9846   21.7919   14.6296 C   0  0  0  0  0  0  0  0  0  0  0  0
   13.4272   19.2278   17.8601 C   0  0  2  0  0  0  0  0  0  0  0  0
   11.0223   19.0209   17.4988 N   0  0  0  0  0  0  0  0  0  0  0  0
   14.6073   18.4909   18.0419 O   0  0  0  0  0  0  0  0  0  0  0  0
   10.2321   19.3593   16.0003 S   0  0  0  0  0  0  0  0  0  0  0  0
   12.3010   18.3059   17.3631 C   0  0  0  0  0  0  0  0  0  0  0  0
   11.2473   19.5028   14.9069 O   0  0  0  0  0  0  0  0  0  0  0  0
   10.0967   18.5203   18.5264 C   0  0  0  0  0  0  0  0  0  0  0  0
    9.4720   20.6409   16.1746 O   0  0  0  0  0  0  0  0  0  0  0  0
   10.2099   19.3698   19.8069 C   0  0  0  0  0  0  0  0  0  0  0  0
   11.4359   20.2806   19.7047 C   0  0  0  0  0  0  0  0  0  0  0  0
   10.3021   18.4853   21.0647 C   0  0  0  0  0  0  0  0  0  0  0  0
    9.1077   18.1039   15.5579 C   0  0  0  0  0  0  0  0  0  0  0  0
    7.7401   18.2790   15.8003 C   0  0  0  0  0  0  0  0  0  0  0  0
    6.8374   17.2885   15.4250 C   0  0  0  0  0  0  0  0  0  0  0  0
    7.2957   16.1235   14.7930 C   0  0  0  0  0  0  0  0  0  0  0  0
    8.6701   15.9482   14.5636 C   0  0  0  0  0  0  0  0  0  0  0  0
    9.5745   16.9405   14.9395 C   0  0  0  0  0  0  0  0  0  0  0  0
   17.7763   26.3546   19.2398 H   0  0  0  0  0  0  0  0  0  0  0  0
   17.7351   26.2659   16.1776 H   0  0  0  0  0  0  0  0  0  0  0  0
   16.2518   25.3679   15.6473 H   0  0  0  0  0  0  0  0  0  0  0  0
    5.6903   14.5021   16.1666 H   0  0  0  0  0  0  0  0  0  0  0  0
    6.6606   14.5371   13.4921 H   0  0  0  0  0  0  0  0  0  0  0  0
    5.3154   15.4717   14.2075 H   0  0  0  0  0  0  0  0  0  0  0  0
   13.9453   24.7828   19.8073 H   0  0  0  0  0  0  0  0  0  0  0  0
   14.4270   25.0027   17.0461 H   0  0  0  0  0  0  0  0  0  0  0  0
   14.1131   26.4123   18.1104 H   0  0  0  0  0  0  0  0  0  0  0  0
   18.5178   24.0809   16.5028 H   0  0  0  0  0  0  0  0  0  0  0  0
   16.8779   23.4319   16.8781 H   0  0  0  0  0  0  0  0  0  0  0  0
   16.2210   27.2285   17.6972 H   0  0  0  0  0  0  0  0  0  0  0  0
   15.8095   26.0650   20.5557 H   0  0  0  0  0  0  0  0  0  0  0  0
   16.4999   24.3921   20.6183 H   0  0  0  0  0  0  0  0  0  0  0  0
   15.5720   21.0469   17.8187 H   0  0  0  0  0  0  0  0  0  0  0  0
   12.7339   20.9416   16.7140 H   0  0  0  0  0  0  0  0  0  0  0  0
   15.3245   19.5167   15.7913 H   0  0  0  0  0  0  0  0  0  0  0  0
   13.7379   19.3916   14.9995 H   0  0  0  0  0  0  0  0  0  0  0  0
   12.5976   21.6898   14.2718 H   0  0  0  0  0  0  0  0  0  0  0  0
   13.0623   23.7076   12.9461 H   0  0  0  0  0  0  0  0  0  0  0  0
   15.3894   24.5250   12.6818 H   0  0  0  0  0  0  0  0  0  0  0  0
   17.2558   23.3050   13.7675 H   0  0  0  0  0  0  0  0  0  0  0  0
   16.8111   21.2761   15.1020 H   0  0  0  0  0  0  0  0  0  0  0  0
   13.1209   19.6459   18.8459 H   0  0  0  0  0  0  0  0  0  0  0  0
   15.3155   19.1343   18.3084 H   0  0  0  0  0  0  0  0  0  0  0  0
   12.4939   17.9726   16.3231 H   0  0  0  0  0  0  0  0  0  0  0  0
   12.3041   17.3806   17.9805 H   0  0  0  0  0  0  0  0  0  0  0  0
    9.0420   18.5758   18.1754 H   0  0  0  0  0  0  0  0  0  0  0  0
   10.2978   17.4480   18.7456 H   0  0  0  0  0  0  0  0  0  0  0  0
    9.3186   20.0262   19.8913 H   0  0  0  0  0  0  0  0  0  0  0  0
   11.5093   20.9249   20.6068 H   0  0  0  0  0  0  0  0  0  0  0  0
   12.3674   19.6804   19.6182 H   0  0  0  0  0  0  0  0  0  0  0  0
   11.3510   20.9429   18.8165 H   0  0  0  0  0  0  0  0  0  0  0  0
   10.5550   17.4388   20.7897 H   0  0  0  0  0  0  0  0  0  0  0  0
    9.3371   18.4872   21.6130 H   0  0  0  0  0  0  0  0  0  0  0  0
   11.0841   18.8760   21.7500 H   0  0  0  0  0  0  0  0  0  0  0  0
    7.3700   19.1737   16.2840 H   0  0  0  0  0  0  0  0  0  0  0  0
    5.7822   17.4273   15.6261 H   0  0  0  0  0  0  0  0  0  0  0  0
    9.0372   15.0446   14.0928 H   0  0  0  0  0  0  0  0  0  0  0  0
   10.6307   16.8002   14.7489 H   0  0  0  0  0  0  0  0  0  0  0  0
  2  1  1  0
  5  4  1  0
  7  6  1  0
  6  8  1  0
  9  3  1  0
  9  2  1  0
 10  7  1  0
 10  3  1  0
 10  1  1  0
 11  6  1  0
  1 11  1  0
 12  8  1  0
 13 12  1  0
 14 12  2  0
 15 13  1  0
 15 16  1  0
 17 16  1  0
 18 17  2  0
 19 18  1  0
 20 19  2  0
 21 20  1  0
 22 17  1  0
 22 21  2  0
 23 15  1  0
 23 25  1  0
 26 24  1  0
 27 24  1  0
 27 23  1  0
 28 26  2  0
 29 24  1  0
 30 26  2  0
 31 29  1  0
 31 32  1  0
 33 31  1  0
 34 26  1  0
 35 34  2  0
 36 35  1  0
 37  5  1  0
 37 36  2  0
 38 37  1  0
 39 38  2  0
 39 34  1  0
  1 40  1  1
  3 41  1  0
  3 42  1  0
  4 43  1  0
  5 44  1  0
  5 45  1  0
  6 46  1  1
  7 47  1  0
  7 48  1  0
  9 49  1  0
  9 50  1  0
 10 51  1  6
 11 52  1  0
 11 53  1  0
 13 54  1  0
 15 55  1  6
 16 56  1  0
 16 57  1  0
 18 58  1  0
 19 59  1  0
 20 60  1  0
 21 61  1  0
 22 62  1  0
 23 63  1  1
 25 64  1  0
 27 65  1  0
 27 66  1  0
 29 67  1  0
 29 68  1  0
 31 69  1  0
 32 70  1  0
 32 71  1  0
 32 72  1  0
 33 73  1  0
 33 74  1  0
 33 75  1  0
 35 76  1  0
 36 77  1  0
 38 78  1  0
 39 79  1  0
M  END
