
     RDKit          3D

 27 27  0  0  0  0  0  0  0  0999 V2000
   19.1058    7.0604   13.3860 C   0  0  0  0  0  0  0  0  0  0  0  0
   18.1960    6.0735   12.6667 C   0  0  0  0  0  0  0  0  0  0  0  0
   15.9989    3.5254   14.2748 C   0  0  0  0  0  0  0  0  0  0  0  0
   15.9830    0.6571   18.6280 O   0  0  0  0  0  0  0  0  0  0  0  0
   15.7706    1.1918   14.8962 C   0  0  0  0  0  0  0  0  0  0  0  0
   13.6756    0.4497   17.7898 O   0  0  0  0  0  0  0  0  0  0  0  0
   16.0356    2.1627   13.9345 C   0  0  0  0  0  0  0  0  0  0  0  0
   15.4902   -1.1738   16.7953 N   0  0  0  0  0  0  0  0  0  0  0  0
   15.4684    1.5745   16.2075 C   0  0  0  0  0  0  0  0  0  0  0  0
   15.6664    3.8967   15.5929 C   0  0  0  0  0  0  0  0  0  0  0  0
   15.4073    2.9248   16.5506 C   0  0  0  0  0  0  0  0  0  0  0  0
   16.3006    4.5369   13.2482 C   0  0  0  0  0  0  0  0  0  0  0  0
   17.1171    5.6661   13.5513 N   0  0  0  0  0  0  0  0  0  0  0  0
   15.8438    4.3973   12.0804 O   0  0  0  0  0  0  0  0  0  0  0  0
   15.1278    0.3845   17.4261 S   0  0  0  0  0  0  0  0  0  0  0  0
   19.9582    7.3254   12.7256 H   0  0  0  0  0  0  0  0  0  0  0  0
   18.5623    7.9927   13.6434 H   0  0  0  0  0  0  0  0  0  0  0  0
   19.5064    6.6025   14.3154 H   0  0  0  0  0  0  0  0  0  0  0  0
   17.7830    6.5353   11.7437 H   0  0  0  0  0  0  0  0  0  0  0  0
   18.7912    5.1822   12.3709 H   0  0  0  0  0  0  0  0  0  0  0  0
   15.8062    0.1472   14.6157 H   0  0  0  0  0  0  0  0  0  0  0  0
   16.2798    1.8442   12.9285 H   0  0  0  0  0  0  0  0  0  0  0  0
   15.0735   -1.2254   15.8386 H   0  0  0  0  0  0  0  0  0  0  0  0
   16.5265   -1.2350   16.6819 H   0  0  0  0  0  0  0  0  0  0  0  0
   15.5642    4.9286   15.8922 H   0  0  0  0  0  0  0  0  0  0  0  0
   15.1429    3.2281   17.5557 H   0  0  0  0  0  0  0  0  0  0  0  0
   17.0761    6.1259   14.4862 H   0  0  0  0  0  0  0  0  0  0  0  0
  2  1  1  0
  7  5  1  0
  7  3  2  0
  9  5  2  0
 10  3  1  0
 11  9  1  0
 11 10  2  0
 12  3  1  0
 13 12  1  0
 13  2  1  0
 14 12  2  0
 15  9  1  0
 15  8  1  0
 15  6  2  0
 15  4  2  0
  1 16  1  0
  1 17  1  0
  1 18  1  0
  2 19  1  0
  2 20  1  0
  5 21  1  0
  7 22  1  0
  8 23  1  0
  8 24  1  0
 10 25  1  0
 11 26  1  0
 13 27  1  0
M  END
