
     RDKit          3D

 20 20  0  0  0  0  0  0  0  0999 V2000
   43.5057   32.4958   32.0443 N   0  0  0  0  0  0  0  0  0  0  0  0
   44.0810   33.0055   33.2968 C   0  0  2  0  0  0  0  0  0  0  0  0
   42.1878   32.6837   30.0062 C   0  0  0  0  0  0  0  0  0  0  0  0
   42.6467   35.0262   33.0564 C   0  0  0  0  0  0  0  0  0  0  0  0
   42.7179   33.2179   31.2968 C   0  0  0  0  0  0  0  0  0  0  0  0
   44.5299   31.8840   34.1831 C   0  0  0  0  0  0  0  0  0  0  0  0
   44.8594   30.7726   33.6876 O   0  0  0  0  0  0  0  0  0  0  0  0
   42.2682   34.4951   31.7505 N   0  0  0  0  0  0  0  0  0  0  0  0
   43.0639   33.9036   34.0080 C   0  0  0  0  0  0  0  0  0  0  0  0
   44.5158   32.0446   35.5559 O   0  0  0  0  0  0  0  0  0  0  0  0
   44.9785   33.6139   33.0472 H   0  0  0  0  0  0  0  0  0  0  0  0
   42.7008   31.7358   29.7373 H   0  0  0  0  0  0  0  0  0  0  0  0
   41.0992   32.4918   30.1053 H   0  0  0  0  0  0  0  0  0  0  0  0
   42.3571   33.4206   29.1933 H   0  0  0  0  0  0  0  0  0  0  0  0
   41.7877   35.5784   33.4942 H   0  0  0  0  0  0  0  0  0  0  0  0
   43.4886   35.7400   32.9261 H   0  0  0  0  0  0  0  0  0  0  0  0
   41.6970   35.0960   31.1145 H   0  0  0  0  0  0  0  0  0  0  0  0
   42.1684   33.3093   34.2966 H   0  0  0  0  0  0  0  0  0  0  0  0
   43.5077   34.3491   34.9250 H   0  0  0  0  0  0  0  0  0  0  0  0
   44.4753   32.9676   35.9715 H   0  0  0  0  0  0  0  0  0  0  0  0
  2  1  1  0
  5  3  1  0
  5  1  2  0
  2  6  1  0
  7  6  2  0
  8  5  1  0
  8  4  1  0
  9  2  1  0
  9  4  1  0
 10  6  1  0
  2 11  1  6
  3 12  1  0
  3 13  1  0
  3 14  1  0
  4 15  1  0
  4 16  1  0
  8 17  1  0
  9 18  1  0
  9 19  1  0
 10 20  1  0
M  END
