
     RDKit          3D

 79 82  0  0  0  0  0  0  0  0999 V2000
   14.1765   16.9141   35.3083 C   0  0  1  0  0  0  0  0  0  0  0  0
   13.1404   16.3712   36.0902 O   0  0  0  0  0  0  0  0  0  0  0  0
   14.8801   15.7944   34.4968 C   0  0  2  0  0  0  0  0  0  0  0  0
   15.9720   16.3838   33.5736 C   0  0  2  0  0  0  0  0  0  0  0  0
   17.0332   16.9138   34.3365 O   0  0  0  0  0  0  0  0  0  0  0  0
   15.4079   17.4353   32.6016 C   0  0  0  0  0  0  0  0  0  0  0  0
   14.6137   18.4942   33.3274 C   0  0  0  0  0  0  0  0  0  0  0  0
   14.7722   19.7810   32.9536 C   0  0  0  0  0  0  0  0  0  0  0  0
   14.1431   20.9339   33.6212 C   0  0  0  0  0  0  0  0  0  0  0  0
   13.9235   22.1225   33.0224 C   0  0  0  0  0  0  0  0  0  0  0  0
   14.2272   22.4241   31.5619 C   0  0  0  0  0  0  0  0  0  0  0  0
   13.6814   18.0237   34.3924 C   0  0  0  0  0  0  0  0  0  0  0  0
   12.9846   22.9762   30.8296 C   0  0  0  0  0  0  0  0  0  0  0  0
   12.2255   24.0716   31.6168 C   0  0  0  0  0  0  0  0  0  0  0  0
   11.9365   23.6384   33.0783 C   0  0  1  0  0  0  0  0  0  0  0  0
   13.2735   23.2766   33.7373 C   0  0  1  0  0  0  0  0  0  0  0  0
   12.9834   23.2306   35.2389 C   0  0  0  0  0  0  0  0  0  0  0  0
   11.9016   24.3020   35.4417 C   0  0  0  0  0  0  0  0  0  0  0  0
   11.4962   24.7856   34.0257 C   0  0  2  0  0  0  0  0  0  0  0  0
   10.9485   22.4341   33.0839 C   0  0  0  0  0  0  0  0  0  0  0  0
   12.4374   18.5130   34.4902 C   0  0  0  0  0  0  0  0  0  0  0  0
   10.0606   25.3915   33.8993 C   0  0  2  0  0  0  0  0  0  0  0  0
   10.0713   26.4132   32.9259 O   0  0  0  0  0  0  0  0  0  0  0  0
    9.6801   26.0264   35.2605 C   0  0  0  0  0  0  0  0  0  0  0  0
    8.9853   24.3762   33.4985 C   0  0  0  0  0  0  0  0  0  0  0  0
    8.0979   25.1176   32.5184 C   0  0  2  0  0  0  0  0  0  0  0  0
    8.7844   26.4790   32.3593 C   0  0  0  0  0  0  0  0  0  0  0  0
    6.6613   25.2018   33.0839 C   0  0  0  0  0  0  0  0  0  0  0  0
    6.4085   26.1652   34.2637 C   0  0  0  0  0  0  0  0  0  0  0  0
    5.1458   26.7376   34.0210 O   0  0  0  0  0  0  0  0  0  0  0  0
    6.3708   25.4297   35.6152 C   0  0  0  0  0  0  0  0  0  0  0  0
    7.4641   27.2896   34.2980 C   0  0  0  0  0  0  0  0  0  0  0  0
   13.8831   14.9228   33.7058 C   0  0  0  0  0  0  0  0  0  0  0  0
   14.9188   17.3797   35.9961 H   0  0  0  0  0  0  0  0  0  0  0  0
   13.2946   16.6732   37.0236 H   0  0  0  0  0  0  0  0  0  0  0  0
   15.3886   15.1196   35.2215 H   0  0  0  0  0  0  0  0  0  0  0  0
   16.3980   15.5579   32.9628 H   0  0  0  0  0  0  0  0  0  0  0  0
   16.7635   17.7954   34.7010 H   0  0  0  0  0  0  0  0  0  0  0  0
   14.7479   16.9458   31.8545 H   0  0  0  0  0  0  0  0  0  0  0  0
   16.2609   17.8733   32.0369 H   0  0  0  0  0  0  0  0  0  0  0  0
   15.4694   19.9887   32.1539 H   0  0  0  0  0  0  0  0  0  0  0  0
   13.8782   20.7958   34.6567 H   0  0  0  0  0  0  0  0  0  0  0  0
   14.5769   21.5439   30.9912 H   0  0  0  0  0  0  0  0  0  0  0  0
   15.0369   23.1843   31.5221 H   0  0  0  0  0  0  0  0  0  0  0  0
   13.3085   23.4023   29.8555 H   0  0  0  0  0  0  0  0  0  0  0  0
   12.2973   22.1390   30.5855 H   0  0  0  0  0  0  0  0  0  0  0  0
   11.2800   24.2910   31.0792 H   0  0  0  0  0  0  0  0  0  0  0  0
   12.8367   25.0009   31.6065 H   0  0  0  0  0  0  0  0  0  0  0  0
   13.9844   24.1296   33.6067 H   0  0  0  0  0  0  0  0  0  0  0  0
   13.8970   23.4565   35.8310 H   0  0  0  0  0  0  0  0  0  0  0  0
   12.5711   22.2523   35.5607 H   0  0  0  0  0  0  0  0  0  0  0  0
   12.3091   25.1512   36.0327 H   0  0  0  0  0  0  0  0  0  0  0  0
   11.0524   23.8681   36.0081 H   0  0  0  0  0  0  0  0  0  0  0  0
   12.1882   25.6311   33.7922 H   0  0  0  0  0  0  0  0  0  0  0  0
   10.0758   22.6494   33.7344 H   0  0  0  0  0  0  0  0  0  0  0  0
   11.4369   21.4936   33.4059 H   0  0  0  0  0  0  0  0  0  0  0  0
   10.5496   22.2182   32.0737 H   0  0  0  0  0  0  0  0  0  0  0  0
   12.0654   19.2443   33.7846 H   0  0  0  0  0  0  0  0  0  0  0  0
   11.7496   18.1768   35.2541 H   0  0  0  0  0  0  0  0  0  0  0  0
    9.4250   25.2448   36.0066 H   0  0  0  0  0  0  0  0  0  0  0  0
   10.5196   26.6301   35.6667 H   0  0  0  0  0  0  0  0  0  0  0  0
    8.7911   26.6837   35.1501 H   0  0  0  0  0  0  0  0  0  0  0  0
    9.3724   23.4708   33.0088 H   0  0  0  0  0  0  0  0  0  0  0  0
    8.4481   23.9951   34.3966 H   0  0  0  0  0  0  0  0  0  0  0  0
    8.1042   24.5793   31.5461 H   0  0  0  0  0  0  0  0  0  0  0  0
    8.2210   27.2976   32.8562 H   0  0  0  0  0  0  0  0  0  0  0  0
    8.8845   26.7333   31.2833 H   0  0  0  0  0  0  0  0  0  0  0  0
    5.9660   25.5178   32.2733 H   0  0  0  0  0  0  0  0  0  0  0  0
    6.3262   24.1808   33.3735 H   0  0  0  0  0  0  0  0  0  0  0  0
    4.9465   27.3822   34.7504 H   0  0  0  0  0  0  0  0  0  0  0  0
    5.6345   24.5989   35.5857 H   0  0  0  0  0  0  0  0  0  0  0  0
    7.3716   25.0315   35.8805 H   0  0  0  0  0  0  0  0  0  0  0  0
    6.0673   26.1260   36.4261 H   0  0  0  0  0  0  0  0  0  0  0  0
    7.2879   28.0128   33.4729 H   0  0  0  0  0  0  0  0  0  0  0  0
    7.4228   27.8519   35.2536 H   0  0  0  0  0  0  0  0  0  0  0  0
    8.4852   26.8696   34.1748 H   0  0  0  0  0  0  0  0  0  0  0  0
   12.8848   14.9108   34.1908 H   0  0  0  0  0  0  0  0  0  0  0  0
   14.2540   13.8779   33.6465 H   0  0  0  0  0  0  0  0  0  0  0  0
   13.7755   15.3019   32.6673 H   0  0  0  0  0  0  0  0  0  0  0  0
  1  2  1  0
  3  1  1  0
  4  3  1  0
  4  5  1  0
  6  4  1  0
  7  6  1  0
  8  7  2  3
  9  8  1  0
 10  9  2  3
 11 10  1  0
 12  7  1  0
 12  1  1  0
 13 11  1  0
 14 13  1  0
 15 14  1  0
 16 15  1  0
 16 10  1  0
 16 17  1  0
 18 17  1  0
 19 18  1  0
 19 15  1  0
 15 20  1  6
 21 12  2  0
 22 19  1  0
 23 22  1  0
 22 24  1  1
 25 22  1  0
 26 25  1  0
 27 26  1  0
 27 23  1  0
 26 28  1  0
 29 28  1  0
 30 29  1  0
 29 31  1  0
 32 29  1  0
  3 33  1  0
  1 34  1  1
  2 35  1  0
  3 36  1  1
  4 37  1  6
  5 38  1  0
  6 39  1  0
  6 40  1  0
  8 41  1  0
  9 42  1  0
 11 43  1  0
 11 44  1  0
 13 45  1  0
 13 46  1  0
 14 47  1  0
 14 48  1  0
 16 49  1  1
 17 50  1  0
 17 51  1  0
 18 52  1  0
 18 53  1  0
 19 54  1  6
 20 55  1  0
 20 56  1  0
 20 57  1  0
 21 58  1  0
 21 59  1  0
 24 60  1  0
 24 61  1  0
 24 62  1  0
 25 63  1  0
 25 64  1  0
 26 65  1  6
 27 66  1  0
 27 67  1  0
 28 68  1  0
 28 69  1  0
 30 70  1  0
 31 71  1  0
 31 72  1  0
 31 73  1  0
 32 74  1  0
 32 75  1  0
 32 76  1  0
 33 77  1  0
 33 78  1  0
 33 79  1  0
M  END
