
     RDKit          3D

 28 29  0  0  0  0  0  0  0  0999 V2000
   -1.6320   10.8538   11.1409 N   0  0  0  0  0  0  0  0  0  0  0  0
   -0.1971   10.7917   11.4847 C   0  0  0  0  0  0  0  0  0  0  0  0
    0.6561   11.7514   10.6108 C   0  0  2  0  0  0  0  0  0  0  0  0
    0.8435   12.9926   11.2414 O   0  0  0  0  0  0  0  0  0  0  0  0
    0.0803   11.9644    9.1919 C   0  0  1  0  0  0  0  0  0  0  0  0
    1.1191   12.2384    8.2852 O   0  0  0  0  0  0  0  0  0  0  0  0
   -0.7676   10.7478    8.7637 C   0  0  2  0  0  0  0  0  0  0  0  0
   -1.1941   10.8642    7.4286 O   0  0  0  0  0  0  0  0  0  0  0  0
   -1.9810   10.6559    9.7194 C   0  0  1  0  0  0  0  0  0  0  0  0
   -2.7804    9.3603    9.6494 C   0  0  1  0  0  0  0  0  0  0  0  0
   -1.9228    8.2465    9.6352 O   0  0  0  0  0  0  0  0  0  0  0  0
   -3.5163    9.3809   10.9728 C   0  0  0  0  0  0  0  0  0  0  0  0
   -2.4789    9.9454   11.9320 C   0  0  0  0  0  0  0  0  0  0  0  0
   -0.0581   11.0416   12.5594 H   0  0  0  0  0  0  0  0  0  0  0  0
    0.1722    9.7513   11.3368 H   0  0  0  0  0  0  0  0  0  0  0  0
    1.6602   11.2812   10.5202 H   0  0  0  0  0  0  0  0  0  0  0  0
    1.7864   13.0286   11.5517 H   0  0  0  0  0  0  0  0  0  0  0  0
   -0.5866   12.8560    9.2029 H   0  0  0  0  0  0  0  0  0  0  0  0
    0.9012   13.0928    7.8283 H   0  0  0  0  0  0  0  0  0  0  0  0
   -0.1423    9.8318    8.8440 H   0  0  0  0  0  0  0  0  0  0  0  0
   -1.1020   11.8158    7.1601 H   0  0  0  0  0  0  0  0  0  0  0  0
   -2.6784   11.4822    9.4484 H   0  0  0  0  0  0  0  0  0  0  0  0
   -3.4764    9.3530    8.7786 H   0  0  0  0  0  0  0  0  0  0  0  0
   -1.7090    8.0665    8.6827 H   0  0  0  0  0  0  0  0  0  0  0  0
   -4.3931   10.0636   10.9113 H   0  0  0  0  0  0  0  0  0  0  0  0
   -3.8564    8.3686   11.2827 H   0  0  0  0  0  0  0  0  0  0  0  0
   -2.9722   10.5069   12.7535 H   0  0  0  0  0  0  0  0  0  0  0  0
   -1.8876    9.1082   12.3688 H   0  0  0  0  0  0  0  0  0  0  0  0
  2  1  1  0
  3  2  1  0
  3  4  1  0
  5  3  1  0
  5  6  1  0
  7  5  1  0
  7  8  1  0
  9  7  1  0
  9  1  1  0
 10  9  1  0
 10 11  1  0
 12 10  1  0
 13 12  1  0
 13  1  1  0
  2 14  1  0
  2 15  1  0
  3 16  1  6
  4 17  1  0
  5 18  1  1
  6 19  1  0
  7 20  1  6
  8 21  1  0
  9 22  1  6
 10 23  1  6
 11 24  1  0
 12 25  1  0
 12 26  1  0
 13 27  1  0
 13 28  1  0
M  END
