
     RDKit          3D

 12 12  0  0  0  0  0  0  0  0999 V2000
    7.5487   11.7779   32.8782 N   0  0  0  0  0  0  0  0  0  0  0  0
    6.6978   11.2306   32.0800 C   0  0  0  0  0  0  0  0  0  0  0  0
    5.2944   11.4609   32.2094 N   0  0  0  0  0  0  0  0  0  0  0  0
    7.3676   10.1805   30.8129 S   0  0  0  0  0  0  0  0  0  0  0  0
    9.0331   10.7544   31.2726 C   0  0  0  0  0  0  0  0  0  0  0  0
    8.9362   11.4006   32.6547 C   0  0  0  0  0  0  0  0  0  0  0  0
    4.9448   12.3044   32.7151 H   0  0  0  0  0  0  0  0  0  0  0  0
    4.6070   10.7896   31.8005 H   0  0  0  0  0  0  0  0  0  0  0  0
    9.3671   11.5064   30.5263 H   0  0  0  0  0  0  0  0  0  0  0  0
    9.7458    9.9028   31.2802 H   0  0  0  0  0  0  0  0  0  0  0  0
    9.2390   10.6669   33.4325 H   0  0  0  0  0  0  0  0  0  0  0  0
    9.5902   12.2956   32.7242 H   0  0  0  0  0  0  0  0  0  0  0  0
  2  1  2  0
  3  2  1  0
  4  2  1  0
  5  4  1  0
  6  5  1  0
  6  1  1  0
  3  7  1  0
  3  8  1  0
  5  9  1  0
  5 10  1  0
  6 11  1  0
  6 12  1  0
M  END
