
     RDKit          3D

 32 33  0  0  0  0  0  0  0  0999 V2000
    1.4942    5.4128   56.1524 N   0  0  0  0  0  0  0  0  0  0  0  0
    0.9006    5.5068   57.3684 C   0  0  0  0  0  0  0  0  0  0  0  0
    1.0710    6.6818   58.1479 N   0  0  0  0  0  0  0  0  0  0  0  0
    0.1458    4.4776   57.8420 N   0  0  0  0  0  0  0  0  0  0  0  0
   -0.0292    3.3402   57.1175 C   0  0  0  0  0  0  0  0  0  0  0  0
    0.5825    3.2264   55.8636 C   0  0  0  0  0  0  0  0  0  0  0  0
   -0.7272    2.4012   57.5880 O   0  0  0  0  0  0  0  0  0  0  0  0
    0.4776    2.0387   55.0725 N   0  0  0  0  0  0  0  0  0  0  0  0
    1.4963    1.7740   54.0510 C   0  0  2  0  0  0  0  0  0  0  0  0
    1.7940    3.0632   53.2474 C   0  0  0  0  0  0  0  0  0  0  0  0
    1.3492    4.2982   55.3954 C   0  0  0  0  0  0  0  0  0  0  0  0
    1.9992    4.2090   54.1308 N   0  0  0  0  0  0  0  0  0  0  0  0
    1.0496    0.5885   53.1595 C   0  0  1  0  0  0  0  0  0  0  0  0
    0.5866    1.0514   51.9134 O   0  0  0  0  0  0  0  0  0  0  0  0
    2.1738   -0.4386   52.9403 C   0  0  1  0  0  0  0  0  0  0  0  0
    3.2880    0.2167   52.3921 O   0  0  0  0  0  0  0  0  0  0  0  0
    2.5716   -1.0946   54.2630 C   0  0  0  0  0  0  0  0  0  0  0  0
    0.2693    7.3265   58.3266 H   0  0  0  0  0  0  0  0  0  0  0  0
    2.0050    6.9147   58.5525 H   0  0  0  0  0  0  0  0  0  0  0  0
   -0.3072    4.5602   58.7806 H   0  0  0  0  0  0  0  0  0  0  0  0
   -0.1910    1.2865   55.3557 H   0  0  0  0  0  0  0  0  0  0  0  0
    2.4305    1.4863   54.5826 H   0  0  0  0  0  0  0  0  0  0  0  0
    0.9448    3.2896   52.5677 H   0  0  0  0  0  0  0  0  0  0  0  0
    2.7078    2.9243   52.6319 H   0  0  0  0  0  0  0  0  0  0  0  0
    2.5509    5.0242   53.7803 H   0  0  0  0  0  0  0  0  0  0  0  0
    0.2228    0.0631   53.6978 H   0  0  0  0  0  0  0  0  0  0  0  0
    0.7702    0.3407   51.2453 H   0  0  0  0  0  0  0  0  0  0  0  0
    1.8161   -1.2380   52.2506 H   0  0  0  0  0  0  0  0  0  0  0  0
    4.0233   -0.4495   52.3545 H   0  0  0  0  0  0  0  0  0  0  0  0
    3.3844   -1.8309   54.0878 H   0  0  0  0  0  0  0  0  0  0  0  0
    1.7079   -1.6334   54.7072 H   0  0  0  0  0  0  0  0  0  0  0  0
    2.9353   -0.3316   54.9843 H   0  0  0  0  0  0  0  0  0  0  0  0
  2  1  2  0
  3  2  1  0
  4  2  1  0
  5  4  1  0
  6  5  1  0
  7  5  2  0
  8  6  1  0
  9  8  1  0
  9 10  1  0
 11  6  2  0
 11  1  1  0
 12 10  1  0
 12 11  1  0
 13  9  1  0
 13 14  1  0
 15 13  1  0
 16 15  1  0
 15 17  1  0
  3 18  1  0
  3 19  1  0
  4 20  1  0
  8 21  1  0
  9 22  1  1
 10 23  1  0
 10 24  1  0
 12 25  1  0
 13 26  1  1
 14 27  1  0
 15 28  1  6
 16 29  1  0
 17 30  1  0
 17 31  1  0
 17 32  1  0
M  END
