
     RDKit          3D

 10  9  0  0  0  0  0  0  0  0999 V2000
    2.1443    2.8877  -37.2927 P   0  0  0  0  0  0  0  0  0  0  0  0
    3.3811    3.6569  -36.3253 C   0  0  0  0  0  0  0  0  0  0  0  0
    2.4255    3.1305  -38.7562 O   0  0  0  0  0  0  0  0  0  0  0  0
    0.6784    3.5707  -36.8504 O   0  0  0  0  0  0  0  0  0  0  0  0
    2.1569    1.2481  -36.9376 O   0  0  0  0  0  0  0  0  0  0  0  0
    4.2080    4.4328  -36.8648 O   0  0  0  0  0  0  0  0  0  0  0  0
    3.4535    3.3612  -34.9814 O   0  0  0  0  0  0  0  0  0  0  0  0
    0.7161    4.5009  -37.1891 H   0  0  0  0  0  0  0  0  0  0  0  0
    1.5592    0.8357  -37.6115 H   0  0  0  0  0  0  0  0  0  0  0  0
    4.2341    2.8353  -34.6070 H   0  0  0  0  0  0  0  0  0  0  0  0
  2  1  1  0
  3  1  2  0
  4  1  1  0
  5  1  1  0
  6  2  2  0
  7  2  1  0
  4  8  1  0
  5  9  1  0
  7 10  1  0
M  END
