
     RDKit          3D

 43 44  0  0  0  0  0  0  0  0999 V2000
   -9.3732   15.1071   26.7956 Cl  0  0  0  0  0  0  0  0  0  0  0  0
  -11.2136   15.4637   21.8502 C   0  0  0  0  0  0  0  0  0  0  0  0
  -10.4889   14.5890   20.9773 N   0  0  0  0  0  0  0  0  0  0  0  0
  -10.5577   16.0832   23.0224 C   0  0  0  0  0  0  0  0  0  0  0  0
  -12.4086   15.7616   21.5900 O   0  0  0  0  0  0  0  0  0  0  0  0
  -10.2236   17.4505   22.9650 C   0  0  0  0  0  0  0  0  0  0  0  0
  -10.4754   18.2105   21.8195 O   0  0  0  0  0  0  0  0  0  0  0  0
   -9.6199   18.0736   24.0601 C   0  0  0  0  0  0  0  0  0  0  0  0
   -8.7371   18.0216   26.2931 O   0  0  0  0  0  0  0  0  0  0  0  0
   -9.3469   17.3572   25.2253 C   0  0  0  0  0  0  0  0  0  0  0  0
   -8.3386   13.4433   24.0202 O   0  0  0  0  0  0  0  0  0  0  0  0
   -9.6899   15.9958   25.3046 C   0  0  0  0  0  0  0  0  0  0  0  0
  -10.2976   15.3460   24.2043 C   0  0  0  0  0  0  0  0  0  0  0  0
  -10.6514   13.8695   24.3107 C   0  0  0  0  0  0  0  0  0  0  0  0
   -9.4224   12.9949   24.3643 C   0  0  0  0  0  0  0  0  0  0  0  0
   -9.5175   11.5642   24.8317 C   0  0  0  0  0  0  0  0  0  0  0  0
   -9.5263   10.6100   23.6384 C   0  0  0  0  0  0  0  0  0  0  0  0
   -8.1870   10.5908   22.8732 C   0  0  0  0  0  0  0  0  0  0  0  0
   -8.3956   10.2373   21.3974 C   0  0  0  0  0  0  0  0  0  0  0  0
   -8.7492   11.4434   20.5509 C   0  0  0  0  0  0  0  0  0  0  0  0
  -10.0226   11.8031   20.2710 C   0  0  0  0  0  0  0  0  0  0  0  0
  -10.3284   12.8533   19.2201 C   0  0  0  0  0  0  0  0  0  0  0  0
  -11.1323   14.0228   19.7889 C   0  0  0  0  0  0  0  0  0  0  0  0
   -9.4933   14.3631   21.2030 H   0  0  0  0  0  0  0  0  0  0  0  0
  -10.9358   19.1116   21.8334 H   0  0  0  0  0  0  0  0  0  0  0  0
   -9.3601   19.1235   24.0031 H   0  0  0  0  0  0  0  0  0  0  0  0
   -8.4137   17.5520   27.1287 H   0  0  0  0  0  0  0  0  0  0  0  0
  -11.2557   13.7139   25.2298 H   0  0  0  0  0  0  0  0  0  0  0  0
  -11.2875   13.5220   23.4722 H   0  0  0  0  0  0  0  0  0  0  0  0
   -8.6673   11.3292   25.5083 H   0  0  0  0  0  0  0  0  0  0  0  0
  -10.4562   11.4195   25.4089 H   0  0  0  0  0  0  0  0  0  0  0  0
   -9.7504    9.5822   23.9988 H   0  0  0  0  0  0  0  0  0  0  0  0
  -10.3645   10.9053   22.9729 H   0  0  0  0  0  0  0  0  0  0  0  0
   -7.6094   11.5298   22.9314 H   0  0  0  0  0  0  0  0  0  0  0  0
   -7.5429    9.8116   23.3368 H   0  0  0  0  0  0  0  0  0  0  0  0
   -9.1576    9.4352   21.2803 H   0  0  0  0  0  0  0  0  0  0  0  0
   -7.4403    9.8260   21.0054 H   0  0  0  0  0  0  0  0  0  0  0  0
   -7.9289   11.9743   20.0756 H   0  0  0  0  0  0  0  0  0  0  0  0
  -10.8519   11.2590   20.7118 H   0  0  0  0  0  0  0  0  0  0  0  0
  -10.9076   12.3777   18.4002 H   0  0  0  0  0  0  0  0  0  0  0  0
   -9.3910   13.2533   18.7745 H   0  0  0  0  0  0  0  0  0  0  0  0
  -11.2457   14.8133   19.0164 H   0  0  0  0  0  0  0  0  0  0  0  0
  -12.1443   13.6474   20.0581 H   0  0  0  0  0  0  0  0  0  0  0  0
  3  2  1  0
  4  2  1  0
  5  2  2  0
  6  4  2  0
  7  6  1  0
  8  6  1  0
 10  9  1  0
 10  8  2  0
 12  1  1  0
 12 10  1  0
 13 12  2  0
 13  4  1  0
 14 13  1  0
 15 14  1  0
 15 11  2  0
 16 15  1  0
 17 16  1  0
 18 17  1  0
 19 18  1  0
 20 19  1  0
 21 20  2  3
 22 21  1  0
 23 22  1  0
 23  3  1  0
  3 24  1  0
  7 25  1  0
  8 26  1  0
  9 27  1  0
 14 28  1  0
 14 29  1  0
 16 30  1  0
 16 31  1  0
 17 32  1  0
 17 33  1  0
 18 34  1  0
 18 35  1  0
 19 36  1  0
 19 37  1  0
 20 38  1  0
 21 39  1  0
 22 40  1  0
 22 41  1  0
 23 42  1  0
 23 43  1  0
M  END
