
     RDKit          3D

 42 46  0  0  0  0  0  0  0  0999 V2000
   34.6646   24.6748   20.5917 C   0  0  0  0  0  0  0  0  0  0  0  0
   34.0497   23.9512   19.6157 N   0  0  0  0  0  0  0  0  0  0  0  0
   34.0018   25.7515   21.1921 C   0  0  0  0  0  0  0  0  0  0  0  0
   38.1816   28.6500   22.6158 N   0  0  0  0  0  0  0  0  0  0  0  0
   34.6311   26.4952   22.1978 C   0  0  0  0  0  0  0  0  0  0  0  0
   39.2201   27.8496   22.4115 N   0  0  0  0  0  0  0  0  0  0  0  0
   35.9428   26.1875   22.6019 C   0  0  0  0  0  0  0  0  0  0  0  0
   42.8565   25.6963   21.9228 N   0  0  0  0  0  0  0  0  0  0  0  0
   36.6055   26.9962   23.6944 C   0  0  0  0  0  0  0  0  0  0  0  0
   43.3150   26.4441   20.9318 N   0  0  0  0  0  0  0  0  0  0  0  0
   37.0142   28.3566   23.1959 C   0  0  0  0  0  0  0  0  0  0  0  0
   36.9911   30.5437   22.6403 N   0  0  0  0  0  0  0  0  0  0  0  0
   40.3415   28.3465   21.8264 C   0  0  0  0  0  0  0  0  0  0  0  0
   41.4740   27.4257   21.6317 C   0  0  0  0  0  0  0  0  0  0  0  0
   41.7257   26.2730   22.3656 C   0  0  0  0  0  0  0  0  0  0  0  0
   42.5136   27.5112   20.7310 C   0  0  0  0  0  0  0  0  0  0  0  0
   44.5526   26.1554   20.2247 C   0  0  0  0  0  0  0  0  0  0  0  0
   40.3781   29.7157   21.4454 C   0  0  0  0  0  0  0  0  0  0  0  0
   39.2622   30.5413   21.6831 C   0  0  0  0  0  0  0  0  0  0  0  0
   38.1531   29.9496   22.2898 C   0  0  0  0  0  0  0  0  0  0  0  0
   36.2741   29.5309   23.2064 C   0  0  0  0  0  0  0  0  0  0  0  0
   36.6202   25.1160   21.9859 C   0  0  0  0  0  0  0  0  0  0  0  0
   35.9856   24.3540   20.9873 C   0  0  0  0  0  0  0  0  0  0  0  0
   36.6437   23.2886   20.3521 C   0  0  0  0  0  0  0  0  0  0  0  0
   35.9893   22.5712   19.3464 C   0  0  0  0  0  0  0  0  0  0  0  0
   34.6807   22.9200   18.9918 C   0  0  0  0  0  0  0  0  0  0  0  0
   32.9939   26.0076   20.8897 H   0  0  0  0  0  0  0  0  0  0  0  0
   34.0983   27.3171   22.6599 H   0  0  0  0  0  0  0  0  0  0  0  0
   35.9000   27.1093   24.5456 H   0  0  0  0  0  0  0  0  0  0  0  0
   37.5039   26.4710   24.0846 H   0  0  0  0  0  0  0  0  0  0  0  0
   41.1244   25.8822   23.1761 H   0  0  0  0  0  0  0  0  0  0  0  0
   42.6822   28.2817   19.9900 H   0  0  0  0  0  0  0  0  0  0  0  0
   44.3779   26.2183   19.1303 H   0  0  0  0  0  0  0  0  0  0  0  0
   44.9087   25.1350   20.4813 H   0  0  0  0  0  0  0  0  0  0  0  0
   45.3364   26.8882   20.5116 H   0  0  0  0  0  0  0  0  0  0  0  0
   41.2583   30.1394   20.9809 H   0  0  0  0  0  0  0  0  0  0  0  0
   39.2676   31.5893   21.4132 H   0  0  0  0  0  0  0  0  0  0  0  0
   35.2730   29.6453   23.6000 H   0  0  0  0  0  0  0  0  0  0  0  0
   37.6342   24.8765   22.2850 H   0  0  0  0  0  0  0  0  0  0  0  0
   37.6569   23.0202   20.6265 H   0  0  0  0  0  0  0  0  0  0  0  0
   36.4891   21.7506   18.8482 H   0  0  0  0  0  0  0  0  0  0  0  0
   34.1659   22.3667   18.2178 H   0  0  0  0  0  0  0  0  0  0  0  0
  2  1  2  0
  3  1  1  0
  5  3  2  0
  6  4  1  0
  7  5  1  0
  9  7  1  0
 10  8  1  0
 11  9  1  0
 11  4  1  0
 13  6  2  0
 14 13  1  0
 15  8  2  0
 15 14  1  0
 16 10  1  0
 16 14  2  0
 17 10  1  0
 18 13  1  0
 19 18  2  0
 20 12  2  0
 20  4  1  0
 20 19  1  0
 21 12  1  0
 21 11  2  0
 22  7  2  0
 23  1  1  0
 23 22  1  0
 24 23  2  0
 25 24  1  0
 26 25  2  0
 26  2  1  0
  3 27  1  0
  5 28  1  0
  9 29  1  0
  9 30  1  0
 15 31  1  0
 16 32  1  0
 17 33  1  0
 17 34  1  0
 17 35  1  0
 18 36  1  0
 19 37  1  0
 21 38  1  0
 22 39  1  0
 24 40  1  0
 25 41  1  0
 26 42  1  0
M  END
