
     RDKit          3D

 32 33  0  0  0  0  0  0  0  0999 V2000
    9.6124    2.8433   32.8233 N   0  0  0  0  0  0  0  0  0  0  0  0
    9.7629    2.4982   31.5200 C   0  0  0  0  0  0  0  0  0  0  0  0
   11.0682    2.3822   30.9721 N   0  0  0  0  0  0  0  0  0  0  0  0
    8.6711    2.2677   30.7406 N   0  0  0  0  0  0  0  0  0  0  0  0
    7.4163    2.3749   31.2497 C   0  0  0  0  0  0  0  0  0  0  0  0
    7.2445    2.7415   32.5875 C   0  0  0  0  0  0  0  0  0  0  0  0
    6.4218    2.1495   30.5112 O   0  0  0  0  0  0  0  0  0  0  0  0
    5.9542    2.9379   33.1689 N   0  0  0  0  0  0  0  0  0  0  0  0
    5.8642    3.8267   34.3308 C   0  0  2  0  0  0  0  0  0  0  0  0
    6.9316    3.4239   35.3683 C   0  0  0  0  0  0  0  0  0  0  0  0
    8.3815    2.9723   33.3677 C   0  0  0  0  0  0  0  0  0  0  0  0
    8.2437    3.3610   34.7344 N   0  0  0  0  0  0  0  0  0  0  0  0
    4.4395    3.8590   34.9149 C   0  0  1  0  0  0  0  0  0  0  0  0
    4.0564    2.5541   35.2791 O   0  0  0  0  0  0  0  0  0  0  0  0
    4.3475    4.8061   36.1384 C   0  0  1  0  0  0  0  0  0  0  0  0
    4.0918    6.1240   35.7128 O   0  0  0  0  0  0  0  0  0  0  0  0
    3.2399    4.3681   37.0922 C   0  0  0  0  0  0  0  0  0  0  0  0
   11.3258    1.5677   30.3718 H   0  0  0  0  0  0  0  0  0  0  0  0
   11.7878    3.1139   31.1649 H   0  0  0  0  0  0  0  0  0  0  0  0
    8.7978    2.0002   29.7378 H   0  0  0  0  0  0  0  0  0  0  0  0
    5.0938    2.5756   32.6986 H   0  0  0  0  0  0  0  0  0  0  0  0
    6.1128    4.8536   33.9794 H   0  0  0  0  0  0  0  0  0  0  0  0
    6.9855    4.1660   36.1912 H   0  0  0  0  0  0  0  0  0  0  0  0
    6.6908    2.4281   35.7986 H   0  0  0  0  0  0  0  0  0  0  0  0
    9.0982    3.5323   35.3109 H   0  0  0  0  0  0  0  0  0  0  0  0
    3.7675    4.2488   34.1118 H   0  0  0  0  0  0  0  0  0  0  0  0
    4.8859    2.0138   35.3525 H   0  0  0  0  0  0  0  0  0  0  0  0
    5.3039    4.7634   36.7088 H   0  0  0  0  0  0  0  0  0  0  0  0
    4.6317    6.2725   34.8927 H   0  0  0  0  0  0  0  0  0  0  0  0
    3.6730    3.9277   38.0157 H   0  0  0  0  0  0  0  0  0  0  0  0
    2.5996    3.6040   36.6023 H   0  0  0  0  0  0  0  0  0  0  0  0
    2.5960    5.2303   37.3663 H   0  0  0  0  0  0  0  0  0  0  0  0
  2  1  2  0
  3  2  1  0
  4  2  1  0
  5  4  1  0
  6  5  1  0
  7  5  2  0
  8  6  1  0
  9  8  1  0
  9 10  1  0
 11  6  2  0
 11  1  1  0
 12 11  1  0
 12 10  1  0
 13  9  1  0
 13 14  1  0
 15 13  1  0
 16 15  1  0
 15 17  1  0
  3 18  1  0
  3 19  1  0
  4 20  1  0
  8 21  1  0
  9 22  1  6
 10 23  1  0
 10 24  1  0
 12 25  1  0
 13 26  1  6
 14 27  1  0
 15 28  1  1
 16 29  1  0
 17 30  1  0
 17 31  1  0
 17 32  1  0
M  END
