
     RDKit          3D

 32 33  0  0  0  0  0  0  0  0999 V2000
   11.3089    2.6269   32.3655 N   0  0  0  0  0  0  0  0  0  0  0  0
   11.4594    2.2817   31.0623 C   0  0  0  0  0  0  0  0  0  0  0  0
   12.7648    2.1658   30.5144 N   0  0  0  0  0  0  0  0  0  0  0  0
   10.3676    2.0512   30.2828 N   0  0  0  0  0  0  0  0  0  0  0  0
    9.1129    2.1585   30.7919 C   0  0  0  0  0  0  0  0  0  0  0  0
    8.9410    2.5251   32.1297 C   0  0  0  0  0  0  0  0  0  0  0  0
    8.1183    1.9330   30.0535 O   0  0  0  0  0  0  0  0  0  0  0  0
    7.6508    2.7215   32.7112 N   0  0  0  0  0  0  0  0  0  0  0  0
    7.5607    3.6103   33.8731 C   0  0  2  0  0  0  0  0  0  0  0  0
    8.6281    3.2075   34.9106 C   0  0  0  0  0  0  0  0  0  0  0  0
   10.0780    2.7559   32.9100 C   0  0  0  0  0  0  0  0  0  0  0  0
    9.9402    3.1446   34.2766 N   0  0  0  0  0  0  0  0  0  0  0  0
    6.1360    3.6426   34.4571 C   0  0  1  0  0  0  0  0  0  0  0  0
    5.7529    2.3377   34.8214 O   0  0  0  0  0  0  0  0  0  0  0  0
    6.0440    4.5897   35.6806 C   0  0  1  0  0  0  0  0  0  0  0  0
    7.1744    5.4282   35.7303 O   0  0  0  0  0  0  0  0  0  0  0  0
    4.7873    5.4528   35.6161 C   0  0  0  0  0  0  0  0  0  0  0  0
   13.6095    2.2537   31.1218 H   0  0  0  0  0  0  0  0  0  0  0  0
   12.8943    1.9906   29.4932 H   0  0  0  0  0  0  0  0  0  0  0  0
   10.4943    1.7838   29.2800 H   0  0  0  0  0  0  0  0  0  0  0  0
    6.7903    2.3592   32.2408 H   0  0  0  0  0  0  0  0  0  0  0  0
    7.8093    4.6372   33.5216 H   0  0  0  0  0  0  0  0  0  0  0  0
    8.6820    3.9496   35.7334 H   0  0  0  0  0  0  0  0  0  0  0  0
    8.3873    2.2117   35.3408 H   0  0  0  0  0  0  0  0  0  0  0  0
   10.7947    3.3158   34.8531 H   0  0  0  0  0  0  0  0  0  0  0  0
    5.4641    4.0324   33.6540 H   0  0  0  0  0  0  0  0  0  0  0  0
    5.8326    1.7707   34.0105 H   0  0  0  0  0  0  0  0  0  0  0  0
    5.9736    3.9813   36.6117 H   0  0  0  0  0  0  0  0  0  0  0  0
    6.8530    6.3554   35.5788 H   0  0  0  0  0  0  0  0  0  0  0  0
    4.1314    5.1237   34.7819 H   0  0  0  0  0  0  0  0  0  0  0  0
    5.0665    6.5149   35.4491 H   0  0  0  0  0  0  0  0  0  0  0  0
    4.2222    5.3928   36.5701 H   0  0  0  0  0  0  0  0  0  0  0  0
  2  1  2  0
  3  2  1  0
  4  2  1  0
  5  4  1  0
  6  5  1  0
  7  5  2  0
  8  6  1  0
  9  8  1  0
  9 10  1  0
 11  6  2  0
 11  1  1  0
 12 11  1  0
 12 10  1  0
 13  9  1  0
 13 14  1  0
 15 13  1  0
 16 15  1  0
 15 17  1  0
  3 18  1  0
  3 19  1  0
  4 20  1  0
  8 21  1  0
  9 22  1  6
 10 23  1  0
 10 24  1  0
 12 25  1  0
 13 26  1  6
 14 27  1  0
 15 28  1  1
 16 29  1  0
 17 30  1  0
 17 31  1  0
 17 32  1  0
M  END
