
     RDKit          3D

 34 33  0  0  0  0  0  0  0  0999 V2000
  -13.7413   25.5811  -22.3792 P   0  0  0  0  0  0  0  0  0  0  0  0
   -4.8880   28.6598  -24.8776 P   0  0  0  0  0  0  0  0  0  0  0  0
   -8.0304   24.0495  -21.8375 O   0  0  0  0  0  0  0  0  0  0  0  0
   -7.7253   24.8195  -22.9158 N   0  0  0  0  0  0  0  0  0  0  0  0
   -8.6063   24.7532  -24.0757 C   0  0  0  0  0  0  0  0  0  0  0  0
  -10.0395   25.1687  -23.6878 C   0  0  0  0  0  0  0  0  0  0  0  0
  -10.0608   26.4639  -22.8679 C   0  0  0  0  0  0  0  0  0  0  0  0
  -11.4336   26.7417  -22.2255 C   0  0  0  0  0  0  0  0  0  0  0  0
  -12.4487   26.3850  -23.1423 O   0  0  0  0  0  0  0  0  0  0  0  0
  -14.4524   24.7155  -23.4033 O   0  0  0  0  0  0  0  0  0  0  0  0
  -13.2133   24.6220  -21.0939 O   0  0  0  0  0  0  0  0  0  0  0  0
  -14.8095   26.7247  -21.7812 O   0  0  0  0  0  0  0  0  0  0  0  0
   -6.6946   25.8217  -22.8198 C   0  0  0  0  0  0  0  0  0  0  0  0
   -6.0115   25.8929  -21.7641 O   0  0  0  0  0  0  0  0  0  0  0  0
   -6.3949   26.7603  -23.9802 C   0  0  0  0  0  0  0  0  0  0  0  0
   -5.5522   27.8062  -23.5545 O   0  0  0  0  0  0  0  0  0  0  0  0
   -4.5654   30.0675  -24.4129 O   0  0  0  0  0  0  0  0  0  0  0  0
   -5.9843   28.7227  -26.1637 O   0  0  0  0  0  0  0  0  0  0  0  0
   -3.4726   27.9378  -25.4119 O   0  0  0  0  0  0  0  0  0  0  0  0
   -8.0258   24.6716  -21.0651 H   0  0  0  0  0  0  0  0  0  0  0  0
   -8.2200   25.3972  -24.8947 H   0  0  0  0  0  0  0  0  0  0  0  0
   -8.5800   23.7181  -24.4815 H   0  0  0  0  0  0  0  0  0  0  0  0
  -10.6839   25.2927  -24.5864 H   0  0  0  0  0  0  0  0  0  0  0  0
  -10.4806   24.3521  -23.0745 H   0  0  0  0  0  0  0  0  0  0  0  0
   -9.2850   26.4110  -22.0713 H   0  0  0  0  0  0  0  0  0  0  0  0
   -9.7823   27.3099  -23.5347 H   0  0  0  0  0  0  0  0  0  0  0  0
  -11.4661   26.1993  -21.2568 H   0  0  0  0  0  0  0  0  0  0  0  0
  -11.5510   27.8190  -21.9776 H   0  0  0  0  0  0  0  0  0  0  0  0
  -13.5740   23.7199  -21.2862 H   0  0  0  0  0  0  0  0  0  0  0  0
  -15.0140   27.3088  -22.5546 H   0  0  0  0  0  0  0  0  0  0  0  0
   -5.8929   26.1828  -24.7860 H   0  0  0  0  0  0  0  0  0  0  0  0
   -7.3562   27.1687  -24.3581 H   0  0  0  0  0  0  0  0  0  0  0  0
   -6.3607   27.8088  -26.2253 H   0  0  0  0  0  0  0  0  0  0  0  0
   -3.7682   27.1209  -25.8877 H   0  0  0  0  0  0  0  0  0  0  0  0
  4  3  1  0
  5  4  1  0
  6  5  1  0
  7  6  1  0
  8  7  1  0
  9  8  1  0
  9  1  1  0
 10  1  2  0
 11  1  1  0
 12  1  1  0
 13  4  1  0
 14 13  2  0
 15 13  1  0
 16 15  1  0
 16  2  1  0
 17  2  2  0
 18  2  1  0
 19  2  1  0
  3 20  1  0
  5 21  1  0
  5 22  1  0
  6 23  1  0
  6 24  1  0
  7 25  1  0
  7 26  1  0
  8 27  1  0
  8 28  1  0
 11 29  1  0
 12 30  1  0
 15 31  1  0
 15 32  1  0
 18 33  1  0
 19 34  1  0
M  END
