
     RDKit          3D

 34 33  0  0  0  0  0  0  0  0999 V2000
  -13.9795   28.2596  -22.5738 P   0  0  0  0  0  0  0  0  0  0  0  0
   -4.5370   28.5078  -25.2594 P   0  0  0  0  0  0  0  0  0  0  0  0
   -7.6980   24.2904  -21.7878 O   0  0  0  0  0  0  0  0  0  0  0  0
   -7.4200   24.9714  -22.9313 N   0  0  0  0  0  0  0  0  0  0  0  0
   -8.5015   25.1727  -23.8883 C   0  0  0  0  0  0  0  0  0  0  0  0
   -9.2630   26.4760  -23.5742 C   0  0  0  0  0  0  0  0  0  0  0  0
  -10.7137   26.2081  -23.1572 C   0  0  0  0  0  0  0  0  0  0  0  0
  -11.5711   27.4880  -23.1218 C   0  0  0  0  0  0  0  0  0  0  0  0
  -12.9281   27.1352  -23.3017 O   0  0  0  0  0  0  0  0  0  0  0  0
  -15.2930   27.5678  -22.2576 O   0  0  0  0  0  0  0  0  0  0  0  0
  -13.3242   28.9076  -21.1591 O   0  0  0  0  0  0  0  0  0  0  0  0
  -14.2572   29.5130  -23.6501 O   0  0  0  0  0  0  0  0  0  0  0  0
   -6.1591   25.6529  -23.0784 C   0  0  0  0  0  0  0  0  0  0  0  0
   -5.2836   25.5124  -22.1840 O   0  0  0  0  0  0  0  0  0  0  0  0
   -5.8571   26.4993  -24.3071 C   0  0  0  0  0  0  0  0  0  0  0  0
   -4.6947   27.2668  -24.0952 O   0  0  0  0  0  0  0  0  0  0  0  0
   -3.2891   29.3048  -24.9288 O   0  0  0  0  0  0  0  0  0  0  0  0
   -5.8857   29.5277  -25.2373 O   0  0  0  0  0  0  0  0  0  0  0  0
   -4.3692   27.8709  -26.8011 O   0  0  0  0  0  0  0  0  0  0  0  0
   -8.0568   24.9708  -21.1616 H   0  0  0  0  0  0  0  0  0  0  0  0
   -8.1041   25.1918  -24.9259 H   0  0  0  0  0  0  0  0  0  0  0  0
   -9.1764   24.2895  -23.8507 H   0  0  0  0  0  0  0  0  0  0  0  0
   -8.7542   27.0618  -22.7768 H   0  0  0  0  0  0  0  0  0  0  0  0
   -9.2670   27.1024  -24.4935 H   0  0  0  0  0  0  0  0  0  0  0  0
  -11.1723   25.4767  -23.8599 H   0  0  0  0  0  0  0  0  0  0  0  0
  -10.7111   25.7324  -22.1515 H   0  0  0  0  0  0  0  0  0  0  0  0
  -11.3467   28.0154  -22.1703 H   0  0  0  0  0  0  0  0  0  0  0  0
  -11.2824   28.1882  -23.9356 H   0  0  0  0  0  0  0  0  0  0  0  0
  -13.9813   29.5873  -20.8639 H   0  0  0  0  0  0  0  0  0  0  0  0
  -14.5530   29.0690  -24.4846 H   0  0  0  0  0  0  0  0  0  0  0  0
   -5.7040   25.8245  -25.1767 H   0  0  0  0  0  0  0  0  0  0  0  0
   -6.7276   27.1620  -24.4989 H   0  0  0  0  0  0  0  0  0  0  0  0
   -5.7602   30.1022  -24.4406 H   0  0  0  0  0  0  0  0  0  0  0  0
   -4.2941   26.8928  -26.6649 H   0  0  0  0  0  0  0  0  0  0  0  0
  4  3  1  0
  5  4  1  0
  6  5  1  0
  7  6  1  0
  8  7  1  0
  9  8  1  0
  9  1  1  0
 10  1  2  0
 11  1  1  0
 12  1  1  0
 13  4  1  0
 14 13  2  0
 15 13  1  0
 16 15  1  0
 16  2  1  0
 17  2  2  0
 18  2  1  0
 19  2  1  0
  3 20  1  0
  5 21  1  0
  5 22  1  0
  6 23  1  0
  6 24  1  0
  7 25  1  0
  7 26  1  0
  8 27  1  0
  8 28  1  0
 11 29  1  0
 12 30  1  0
 15 31  1  0
 15 32  1  0
 18 33  1  0
 19 34  1  0
M  END
