
     RDKit          3D

 38 40  0  0  0  0  0  0  0  0999 V2000
  -28.9876    5.7609   39.2937 P   0  0  0  0  0  0  0  0  0  0  0  0
  -28.1901    4.5017   39.0466 O   0  0  0  0  0  0  0  0  0  0  0  0
  -29.9147    6.1573   37.9499 O   0  0  0  0  0  0  0  0  0  0  0  0
  -27.9603    7.0284   39.6877 O   0  0  0  0  0  0  0  0  0  0  0  0
  -30.8570    6.5763   40.7992 C   0  0  0  0  0  0  0  0  0  0  0  0
  -30.0097    5.4729   40.5995 O   0  0  0  0  0  0  0  0  0  0  0  0
  -31.3481    6.5475   42.2495 C   0  0  1  0  0  0  0  0  0  0  0  0
  -32.1976    5.4323   42.4376 O   0  0  0  0  0  0  0  0  0  0  0  0
  -30.1882    6.4728   43.2663 C   0  0  1  0  0  0  0  0  0  0  0  0
  -30.3703    7.4578   44.2471 O   0  0  0  0  0  0  0  0  0  0  0  0
  -30.3580    5.1014   43.8768 C   0  0  1  0  0  0  0  0  0  0  0  0
  -29.9779    5.0259   45.2327 O   0  0  0  0  0  0  0  0  0  0  0  0
  -31.8452    4.8540   43.6685 C   0  0  2  0  0  0  0  0  0  0  0  0
  -35.3526    1.3023   44.9283 N   0  0  0  0  0  0  0  0  0  0  0  0
  -35.3955    2.6592   45.1170 C   0  0  0  0  0  0  0  0  0  0  0  0
  -36.5301    3.2485   45.7353 N   0  0  0  0  0  0  0  0  0  0  0  0
  -34.3531    3.4503   44.7177 N   0  0  0  0  0  0  0  0  0  0  0  0
  -33.2874    2.8534   44.1311 C   0  0  0  0  0  0  0  0  0  0  0  0
  -33.2278    1.5218   43.9257 C   0  0  0  0  0  0  0  0  0  0  0  0
  -34.2788    0.7101   44.3346 C   0  0  0  0  0  0  0  0  0  0  0  0
  -34.2495   -0.5361   44.1698 O   0  0  0  0  0  0  0  0  0  0  0  0
  -32.0777    1.1944   43.3079 N   0  0  0  0  0  0  0  0  0  0  0  0
  -31.4569    2.3942   43.1529 C   0  0  0  0  0  0  0  0  0  0  0  0
  -32.1693    3.4296   43.6696 N   0  0  0  0  0  0  0  0  0  0  0  0
  -29.8791    5.3569   37.3676 H   0  0  0  0  0  0  0  0  0  0  0  0
  -27.4203    7.1791   38.8713 H   0  0  0  0  0  0  0  0  0  0  0  0
  -30.3254    7.5423   40.6354 H   0  0  0  0  0  0  0  0  0  0  0  0
  -31.7356    6.5171   40.1189 H   0  0  0  0  0  0  0  0  0  0  0  0
  -31.9482    7.4706   42.4165 H   0  0  0  0  0  0  0  0  0  0  0  0
  -29.1787    6.5722   42.8007 H   0  0  0  0  0  0  0  0  0  0  0  0
  -29.8378    7.1724   45.0351 H   0  0  0  0  0  0  0  0  0  0  0  0
  -29.7363    4.3924   43.2933 H   0  0  0  0  0  0  0  0  0  0  0  0
  -30.6172    5.5526   45.7792 H   0  0  0  0  0  0  0  0  0  0  0  0
  -32.4331    5.3645   44.4665 H   0  0  0  0  0  0  0  0  0  0  0  0
  -36.1549    0.7103   45.2424 H   0  0  0  0  0  0  0  0  0  0  0  0
  -36.5713    4.2811   45.8845 H   0  0  0  0  0  0  0  0  0  0  0  0
  -37.3350    2.6613   46.0477 H   0  0  0  0  0  0  0  0  0  0  0  0
  -30.5075    2.4965   42.6460 H   0  0  0  0  0  0  0  0  0  0  0  0
  2  1  2  0
  3  1  1  0
  4  1  1  0
  6  5  1  0
  6  1  1  0
  7  5  1  0
  8  7  1  0
  9  7  1  0
  9 10  1  0
 11  9  1  0
 11 12  1  0
 13  8  1  0
 13 11  1  0
 15 14  1  0
 16 15  1  0
 17 15  2  0
 18 17  1  0
 19 18  2  0
 20 19  1  0
 20 14  1  0
 21 20  2  0
 22 19  1  0
 23 22  2  0
 24 18  1  0
 24 23  1  0
 13 24  1  0
  3 25  1  0
  4 26  1  0
  5 27  1  0
  5 28  1  0
  7 29  1  1
  9 30  1  6
 10 31  1  0
 11 32  1  6
 12 33  1  0
 13 34  1  1
 14 35  1  0
 16 36  1  0
 16 37  1  0
 23 38  1  0
M  END
