
     RDKit          3D

 38 40  0  0  0  0  0  0  0  0999 V2000
  -27.2972    7.0657   40.2296 P   0  0  0  0  0  0  0  0  0  0  0  0
  -26.4678    5.8444   39.9084 O   0  0  0  0  0  0  0  0  0  0  0  0
  -27.4396    8.0645   38.8864 O   0  0  0  0  0  0  0  0  0  0  0  0
  -26.6156    7.9070   41.5121 O   0  0  0  0  0  0  0  0  0  0  0  0
  -29.6765    7.6432   40.8865 C   0  0  0  0  0  0  0  0  0  0  0  0
  -28.8292    6.5397   40.6868 O   0  0  0  0  0  0  0  0  0  0  0  0
  -30.1677    7.6144   42.3368 C   0  0  1  0  0  0  0  0  0  0  0  0
  -30.9640    6.4635   42.5422 O   0  0  0  0  0  0  0  0  0  0  0  0
  -29.0068    7.6105   43.3553 C   0  0  1  0  0  0  0  0  0  0  0  0
  -29.2363    8.6013   44.3202 O   0  0  0  0  0  0  0  0  0  0  0  0
  -29.1127    6.2425   43.9875 C   0  0  1  0  0  0  0  0  0  0  0  0
  -28.7312    6.2066   45.3447 O   0  0  0  0  0  0  0  0  0  0  0  0
  -30.5864    5.9221   43.7824 C   0  0  2  0  0  0  0  0  0  0  0  0
  -34.1606    2.2596   44.3423 N   0  0  0  0  0  0  0  0  0  0  0  0
  -34.3053    3.6208   44.4100 C   0  0  0  0  0  0  0  0  0  0  0  0
  -35.5855    4.1811   44.6625 N   0  0  0  0  0  0  0  0  0  0  0  0
  -33.2259    4.4443   44.2397 N   0  0  0  0  0  0  0  0  0  0  0  0
  -32.0201    3.8744   44.0002 C   0  0  0  0  0  0  0  0  0  0  0  0
  -31.8560    2.5382   43.9188 C   0  0  0  0  0  0  0  0  0  0  0  0
  -32.9453    1.6944   44.0977 C   0  0  0  0  0  0  0  0  0  0  0  0
  -32.8245    0.4441   44.0410 O   0  0  0  0  0  0  0  0  0  0  0  0
  -30.5712    2.2398   43.6510 N   0  0  0  0  0  0  0  0  0  0  0  0
  -29.9790    3.4614   43.5742 C   0  0  0  0  0  0  0  0  0  0  0  0
  -30.8431    4.4842   43.8060 N   0  0  0  0  0  0  0  0  0  0  0  0
  -27.5805    8.9729   39.2551 H   0  0  0  0  0  0  0  0  0  0  0  0
  -25.7433    8.2271   41.1691 H   0  0  0  0  0  0  0  0  0  0  0  0
  -29.1449    8.6091   40.7227 H   0  0  0  0  0  0  0  0  0  0  0  0
  -30.5551    7.5839   40.2061 H   0  0  0  0  0  0  0  0  0  0  0  0
  -30.8107    8.5107   42.4887 H   0  0  0  0  0  0  0  0  0  0  0  0
  -28.0025    7.7499   42.8887 H   0  0  0  0  0  0  0  0  0  0  0  0
  -28.7126    9.3961   44.0377 H   0  0  0  0  0  0  0  0  0  0  0  0
  -28.4576    5.5544   43.4158 H   0  0  0  0  0  0  0  0  0  0  0  0
  -28.9047    5.2991   45.7070 H   0  0  0  0  0  0  0  0  0  0  0  0
  -31.1987    6.4170   44.5718 H   0  0  0  0  0  0  0  0  0  0  0  0
  -34.9937    1.6429   44.4786 H   0  0  0  0  0  0  0  0  0  0  0  0
  -36.3872    3.5653   44.9240 H   0  0  0  0  0  0  0  0  0  0  0  0
  -35.7429    5.2108   44.5911 H   0  0  0  0  0  0  0  0  0  0  0  0
  -28.9337    3.5864   43.3279 H   0  0  0  0  0  0  0  0  0  0  0  0
  2  1  2  0
  3  1  1  0
  4  1  1  0
  6  5  1  0
  6  1  1  0
  7  5  1  0
  8  7  1  0
  9  7  1  0
  9 10  1  0
 11  9  1  0
 11 12  1  0
 13  8  1  0
 13 11  1  0
 15 14  1  0
 16 15  1  0
 17 15  2  0
 18 17  1  0
 19 18  2  0
 20 19  1  0
 20 14  1  0
 21 20  2  0
 22 19  1  0
 23 22  2  0
 24 18  1  0
 24 23  1  0
 13 24  1  0
  3 25  1  0
  4 26  1  0
  5 27  1  0
  5 28  1  0
  7 29  1  1
  9 30  1  6
 10 31  1  0
 11 32  1  6
 12 33  1  0
 13 34  1  1
 14 35  1  0
 16 36  1  0
 16 37  1  0
 23 38  1  0
M  END
