
     RDKit          3D

 38 40  0  0  0  0  0  0  0  0999 V2000
  -28.1021    7.0451   38.5110 P   0  0  0  0  0  0  0  0  0  0  0  0
  -27.3005    5.7902   38.2557 O   0  0  0  0  0  0  0  0  0  0  0  0
  -29.0362    7.4432   37.1727 O   0  0  0  0  0  0  0  0  0  0  0  0
  -27.0783    8.3152   38.9061 O   0  0  0  0  0  0  0  0  0  0  0  0
  -30.2967    7.5025   39.6946 C   0  0  0  0  0  0  0  0  0  0  0  0
  -29.1177    6.7477   39.8198 O   0  0  0  0  0  0  0  0  0  0  0  0
  -30.9160    7.6590   41.0864 C   0  0  1  0  0  0  0  0  0  0  0  0
  -31.3693    6.4001   41.5451 O   0  0  0  0  0  0  0  0  0  0  0  0
  -29.9218    8.2404   42.1153 C   0  0  1  0  0  0  0  0  0  0  0  0
  -30.5287    9.3083   42.7909 O   0  0  0  0  0  0  0  0  0  0  0  0
  -29.7029    7.0875   43.0667 C   0  0  1  0  0  0  0  0  0  0  0  0
  -29.4789    7.4806   44.4024 O   0  0  0  0  0  0  0  0  0  0  0  0
  -30.9923    6.2976   42.8946 C   0  0  2  0  0  0  0  0  0  0  0  0
  -33.2646    2.1712   44.9712 N   0  0  0  0  0  0  0  0  0  0  0  0
  -33.7710    3.4315   44.7879 C   0  0  0  0  0  0  0  0  0  0  0  0
  -35.0996    3.7228   45.1963 N   0  0  0  0  0  0  0  0  0  0  0  0
  -33.0062    4.4123   44.2177 N   0  0  0  0  0  0  0  0  0  0  0  0
  -31.7433    4.0979   43.8401 C   0  0  0  0  0  0  0  0  0  0  0  0
  -31.2277    2.8622   44.0009 C   0  0  0  0  0  0  0  0  0  0  0  0
  -31.9949    1.8622   44.5856 C   0  0  0  0  0  0  0  0  0  0  0  0
  -31.5404    0.7031   44.7619 O   0  0  0  0  0  0  0  0  0  0  0  0
  -29.9704    2.8137   43.5230 N   0  0  0  0  0  0  0  0  0  0  0  0
  -29.7630    4.0781   43.0678 C   0  0  0  0  0  0  0  0  0  0  0  0
  -30.8300    4.8950   43.2695 N   0  0  0  0  0  0  0  0  0  0  0  0
  -29.3167    8.3808   37.3245 H   0  0  0  0  0  0  0  0  0  0  0  0
  -26.1979    7.8901   39.0642 H   0  0  0  0  0  0  0  0  0  0  0  0
  -30.0954    8.5220   39.2912 H   0  0  0  0  0  0  0  0  0  0  0  0
  -31.0222    6.9790   39.0329 H   0  0  0  0  0  0  0  0  0  0  0  0
  -31.8003    8.3281   40.9844 H   0  0  0  0  0  0  0  0  0  0  0  0
  -28.9537    8.5669   41.6659 H   0  0  0  0  0  0  0  0  0  0  0  0
  -31.5071    9.1420   42.7591 H   0  0  0  0  0  0  0  0  0  0  0  0
  -28.8200    6.5187   42.7108 H   0  0  0  0  0  0  0  0  0  0  0  0
  -30.3367    7.4438   44.9000 H   0  0  0  0  0  0  0  0  0  0  0  0
  -31.8033    6.7505   43.5112 H   0  0  0  0  0  0  0  0  0  0  0  0
  -33.8596    1.4332   45.4121 H   0  0  0  0  0  0  0  0  0  0  0  0
  -35.3152    3.8924   46.2038 H   0  0  0  0  0  0  0  0  0  0  0  0
  -35.8756    3.7714   44.4994 H   0  0  0  0  0  0  0  0  0  0  0  0
  -28.8474    4.3763   42.5763 H   0  0  0  0  0  0  0  0  0  0  0  0
  2  1  2  0
  3  1  1  0
  4  1  1  0
  6  5  1  0
  6  1  1  0
  7  5  1  0
  8  7  1  0
  9  7  1  0
  9 10  1  0
 11  9  1  0
 11 12  1  0
 13  8  1  0
 13 11  1  0
 15 14  1  0
 16 15  1  0
 17 15  2  0
 18 17  1  0
 19 18  2  0
 20 19  1  0
 20 14  1  0
 21 20  2  0
 22 19  1  0
 23 22  2  0
 24 18  1  0
 24 23  1  0
 13 24  1  0
  3 25  1  0
  4 26  1  0
  5 27  1  0
  5 28  1  0
  7 29  1  6
  9 30  1  6
 10 31  1  0
 11 32  1  6
 12 33  1  0
 13 34  1  1
 14 35  1  0
 16 36  1  0
 16 37  1  0
 23 38  1  0
M  END
