
     RDKit          3D

 38 40  0  0  0  0  0  0  0  0999 V2000
    6.0375  -27.5672   63.2913 P   0  0  0  0  0  0  0  0  0  0  0  0
    4.7800  -27.4907   62.4593 O   0  0  0  0  0  0  0  0  0  0  0  0
    6.6289  -29.1376   63.3432 O   0  0  0  0  0  0  0  0  0  0  0  0
    5.7414  -27.0150   64.8474 O   0  0  0  0  0  0  0  0  0  0  0  0
    8.4027  -26.6747   63.2684 C   0  0  0  0  0  0  0  0  0  0  0  0
    7.1857  -26.5706   62.5751 O   0  0  0  0  0  0  0  0  0  0  0  0
    9.3137  -25.5518   62.7773 C   0  0  1  0  0  0  0  0  0  0  0  0
    9.4419  -25.6456   61.3716 O   0  0  0  0  0  0  0  0  0  0  0  0
    8.7617  -24.1568   63.1386 C   0  0  1  0  0  0  0  0  0  0  0  0
    9.7872  -23.3867   63.7038 O   0  0  0  0  0  0  0  0  0  0  0  0
    8.3663  -23.5856   61.7953 C   0  0  1  0  0  0  0  0  0  0  0  0
    8.5236  -22.1862   61.7112 O   0  0  0  0  0  0  0  0  0  0  0  0
    9.2907  -24.3462   60.8542 C   0  0  2  0  0  0  0  0  0  0  0  0
   10.5271  -25.1166   55.9203 N   0  0  0  0  0  0  0  0  0  0  0  0
   11.3362  -25.1364   57.0286 C   0  0  0  0  0  0  0  0  0  0  0  0
   12.7254  -25.3975   56.8829 N   0  0  0  0  0  0  0  0  0  0  0  0
   10.8185  -24.8963   58.2717 N   0  0  0  0  0  0  0  0  0  0  0  0
    9.4903  -24.6517   58.3710 C   0  0  0  0  0  0  0  0  0  0  0  0
    8.6730  -24.6380   57.2952 C   0  0  0  0  0  0  0  0  0  0  0  0
    9.1909  -24.8648   56.0263 C   0  0  0  0  0  0  0  0  0  0  0  0
    8.4602  -24.8356   55.0004 O   0  0  0  0  0  0  0  0  0  0  0  0
    7.4065  -24.3891   57.6744 N   0  0  0  0  0  0  0  0  0  0  0  0
    7.5093  -24.2572   59.0254 C   0  0  0  0  0  0  0  0  0  0  0  0
    8.7836  -24.3944   59.4796 N   0  0  0  0  0  0  0  0  0  0  0  0
    6.8241  -29.3701   62.4005 H   0  0  0  0  0  0  0  0  0  0  0  0
    4.7601  -26.8856   64.8877 H   0  0  0  0  0  0  0  0  0  0  0  0
    8.2706  -26.5536   64.3687 H   0  0  0  0  0  0  0  0  0  0  0  0
    8.8863  -27.6546   63.0576 H   0  0  0  0  0  0  0  0  0  0  0  0
   10.3184  -25.7046   63.2321 H   0  0  0  0  0  0  0  0  0  0  0  0
    7.8810  -24.1871   63.8239 H   0  0  0  0  0  0  0  0  0  0  0  0
    9.8666  -23.6743   64.6508 H   0  0  0  0  0  0  0  0  0  0  0  0
    7.3016  -23.8382   61.6135 H   0  0  0  0  0  0  0  0  0  0  0  0
    9.4767  -21.9758   61.5318 H   0  0  0  0  0  0  0  0  0  0  0  0
   10.2976  -23.8677   60.8508 H   0  0  0  0  0  0  0  0  0  0  0  0
   10.9397  -25.2937   54.9762 H   0  0  0  0  0  0  0  0  0  0  0  0
   13.3492  -25.4105   57.7201 H   0  0  0  0  0  0  0  0  0  0  0  0
   13.1401  -25.5795   55.9421 H   0  0  0  0  0  0  0  0  0  0  0  0
    6.6516  -24.0817   59.6598 H   0  0  0  0  0  0  0  0  0  0  0  0
  2  1  2  0
  3  1  1  0
  4  1  1  0
  6  1  1  0
  6  5  1  0
  7  5  1  0
  8  7  1  0
  9  7  1  0
  9 10  1  0
 11  9  1  0
 11 12  1  0
 13 11  1  0
 13  8  1  0
 15 14  1  0
 16 15  1  0
 17 15  2  0
 18 17  1  0
 19 18  2  0
 20 19  1  0
 20 14  1  0
 21 20  2  0
 22 19  1  0
 23 22  2  0
 24 23  1  0
 24 18  1  0
 13 24  1  0
  3 25  1  0
  4 26  1  0
  5 27  1  0
  5 28  1  0
  7 29  1  1
  9 30  1  1
 10 31  1  0
 11 32  1  6
 12 33  1  0
 13 34  1  6
 14 35  1  0
 16 36  1  0
 16 37  1  0
 23 38  1  0
M  END
