
     RDKit          3D

 33 35  0  0  0  0  0  0  0  0999 V2000
    0.1294  -28.5824  -10.0596 N   0  0  0  0  0  0  0  0  0  0  0  0
   -0.5056  -27.3934  -10.0869 C   0  0  0  0  0  0  0  0  0  0  0  0
   -1.4514  -27.3570   -9.0642 C   0  0  0  0  0  0  0  0  0  0  0  0
   -1.3188  -28.5938   -8.4509 C   0  0  0  0  0  0  0  0  0  0  0  0
   -0.1595  -26.3050  -11.0290 C   0  0  0  0  0  0  0  0  0  0  0  0
   -2.3020  -26.2203   -8.6447 C   0  0  0  0  0  0  0  0  0  0  0  0
   -2.0541  -29.1177   -7.2608 C   0  0  0  0  0  0  0  0  0  0  0  0
   -0.3808  -29.2706   -9.0750 O   0  0  0  0  0  0  0  0  0  0  0  0
   -1.9346  -25.4244   -7.5480 C   0  0  0  0  0  0  0  0  0  0  0  0
   -2.7499  -24.3602   -7.1426 C   0  0  0  0  0  0  0  0  0  0  0  0
   -3.9266  -24.0740   -7.8396 C   0  0  0  0  0  0  0  0  0  0  0  0
   -4.2886  -24.8511   -8.9433 C   0  0  0  0  0  0  0  0  0  0  0  0
   -3.4827  -25.9240   -9.3427 C   0  0  0  0  0  0  0  0  0  0  0  0
    1.1673  -26.1305  -11.4734 C   0  0  0  0  0  0  0  0  0  0  0  0
    1.4982  -25.0352  -12.2810 C   0  0  0  0  0  0  0  0  0  0  0  0
    0.5137  -24.1200  -12.6635 C   0  0  0  0  0  0  0  0  0  0  0  0
   -0.8130  -24.3257  -12.2796 C   0  0  0  0  0  0  0  0  0  0  0  0
   -1.1478  -25.4063  -11.4598 C   0  0  0  0  0  0  0  0  0  0  0  0
    0.8478  -22.9936  -13.4077 O   0  0  0  0  0  0  0  0  0  0  0  0
    2.1615  -27.0266  -11.0910 O   0  0  0  0  0  0  0  0  0  0  0  0
   -2.4879  -28.2769   -6.6801 H   0  0  0  0  0  0  0  0  0  0  0  0
   -2.8711  -29.7894   -7.5969 H   0  0  0  0  0  0  0  0  0  0  0  0
   -1.3566  -29.6853   -6.6102 H   0  0  0  0  0  0  0  0  0  0  0  0
   -1.0230  -25.6357   -7.0026 H   0  0  0  0  0  0  0  0  0  0  0  0
   -2.4655  -23.7557   -6.2911 H   0  0  0  0  0  0  0  0  0  0  0  0
   -4.5539  -23.2488   -7.5283 H   0  0  0  0  0  0  0  0  0  0  0  0
   -5.1979  -24.6275   -9.4862 H   0  0  0  0  0  0  0  0  0  0  0  0
   -3.7771  -26.5239  -10.1950 H   0  0  0  0  0  0  0  0  0  0  0  0
    2.5237  -24.8854  -12.5948 H   0  0  0  0  0  0  0  0  0  0  0  0
   -1.5806  -23.6266  -12.5863 H   0  0  0  0  0  0  0  0  0  0  0  0
   -2.1771  -25.5331  -11.1485 H   0  0  0  0  0  0  0  0  0  0  0  0
    1.4645  -23.0512  -14.2098 H   0  0  0  0  0  0  0  0  0  0  0  0
    2.8658  -26.7805  -10.4051 H   0  0  0  0  0  0  0  0  0  0  0  0
  2  1  2  0
  3  2  1  0
  4  3  2  0
  5  2  1  0
  6  3  1  0
  7  4  1  0
  8  4  1  0
  8  1  1  0
  9  6  2  0
 10  9  1  0
 11 10  2  0
 12 11  1  0
 13 12  2  0
 13  6  1  0
 14  5  2  0
 15 14  1  0
 16 15  2  0
 17 16  1  0
 18 17  2  0
 18  5  1  0
 19 16  1  0
 20 14  1  0
  7 21  1  0
  7 22  1  0
  7 23  1  0
  9 24  1  0
 10 25  1  0
 11 26  1  0
 12 27  1  0
 13 28  1  0
 15 29  1  0
 17 30  1  0
 18 31  1  0
 19 32  1  0
 20 33  1  0
M  END
