
     RDKit          3D

 37 41  0  0  0  0  0  0  0  0999 V2000
   -5.3504  -24.4817  -13.5627 C   0  0  0  0  0  0  0  0  0  0  0  0
   -6.0065  -25.1226  -14.5637 C   0  0  0  0  0  0  0  0  0  0  0  0
   -5.7938  -23.9760  -12.2342 C   0  0  0  0  0  0  0  0  0  0  0  0
   -3.9584  -24.1874  -13.6923 N   0  0  0  0  0  0  0  0  0  0  0  0
   -7.4631  -25.3612  -14.6066 C   0  0  0  0  0  0  0  0  0  0  0  0
   -5.1989  -25.6906  -15.7163 C   0  0  0  0  0  0  0  0  0  0  0  0
   -4.6823  -23.4270  -11.5999 C   0  0  0  0  0  0  0  0  0  0  0  0
   -7.0139  -24.0667  -11.5512 C   0  0  0  0  0  0  0  0  0  0  0  0
   -3.5395  -23.5600  -12.4919 C   0  0  0  0  0  0  0  0  0  0  0  0
   -3.1222  -24.5570  -14.8290 C   0  0  0  0  0  0  0  0  0  0  0  0
   -8.0512  -26.0986  -15.5879 N   0  0  0  0  0  0  0  0  0  0  0  0
   -8.3569  -24.7757  -13.7679 N   0  0  0  0  0  0  0  0  0  0  0  0
   -3.9899  -24.8138  -16.0648 C   0  0  0  0  0  0  0  0  0  0  0  0
   -4.7437  -22.9309  -10.2978 C   0  0  0  0  0  0  0  0  0  0  0  0
   -7.0998  -23.5526  -10.2465 C   0  0  0  0  0  0  0  0  0  0  0  0
   -2.3545  -23.2033  -12.2586 O   0  0  0  0  0  0  0  0  0  0  0  0
   -9.3639  -25.9966  -15.3000 C   0  0  0  0  0  0  0  0  0  0  0  0
   -9.5498  -25.2113  -14.2078 C   0  0  0  0  0  0  0  0  0  0  0  0
   -5.9714  -22.9905   -9.6222 C   0  0  0  0  0  0  0  0  0  0  0  0
  -10.4381  -26.5852  -15.9635 C   0  0  0  0  0  0  0  0  0  0  0  0
  -10.8312  -24.9711  -13.7067 C   0  0  0  0  0  0  0  0  0  0  0  0
  -11.7257  -26.3411  -15.4480 C   0  0  0  0  0  0  0  0  0  0  0  0
  -11.8947  -25.5491  -14.3435 N   0  0  0  0  0  0  0  0  0  0  0  0
   -5.8337  -25.7840  -16.6248 H   0  0  0  0  0  0  0  0  0  0  0  0
   -4.8489  -26.7087  -15.4395 H   0  0  0  0  0  0  0  0  0  0  0  0
   -7.8660  -24.5787  -11.9629 H   0  0  0  0  0  0  0  0  0  0  0  0
   -2.5551  -25.4783  -14.5755 H   0  0  0  0  0  0  0  0  0  0  0  0
   -2.3980  -23.7428  -15.0468 H   0  0  0  0  0  0  0  0  0  0  0  0
   -8.1685  -24.1189  -12.9778 H   0  0  0  0  0  0  0  0  0  0  0  0
   -3.3815  -25.3080  -16.8525 H   0  0  0  0  0  0  0  0  0  0  0  0
   -4.3506  -23.8409  -16.4656 H   0  0  0  0  0  0  0  0  0  0  0  0
   -3.8655  -22.5210   -9.8159 H   0  0  0  0  0  0  0  0  0  0  0  0
   -8.0342  -23.6197   -9.7043 H   0  0  0  0  0  0  0  0  0  0  0  0
   -6.0474  -22.6144   -8.6102 H   0  0  0  0  0  0  0  0  0  0  0  0
  -10.2894  -27.2114  -16.8336 H   0  0  0  0  0  0  0  0  0  0  0  0
  -10.9833  -24.3486  -12.8353 H   0  0  0  0  0  0  0  0  0  0  0  0
  -12.5893  -26.7819  -15.9275 H   0  0  0  0  0  0  0  0  0  0  0  0
  2  1  2  0
  3  1  1  0
  4  1  1  0
  5  2  1  0
  6  2  1  0
  7  3  2  0
  8  3  1  0
  9  7  1  0
  9  4  1  0
 10  4  1  0
 11  5  2  0
 12  5  1  0
 13  6  1  0
 13 10  1  0
 14  7  1  0
 15  8  2  0
 16  9  2  0
 17 11  1  0
 18 17  2  0
 18 12  1  0
 19 15  1  0
 19 14  2  0
 20 17  1  0
 21 18  1  0
 22 20  2  0
 23 22  1  0
 23 21  2  0
  6 24  1  0
  6 25  1  0
  8 26  1  0
 10 27  1  0
 10 28  1  0
 12 29  1  0
 13 30  1  0
 13 31  1  0
 14 32  1  0
 15 33  1  0
 19 34  1  0
 20 35  1  0
 21 36  1  0
 22 37  1  0
M  END
