
     RDKit          3D

 73 77  0  0  0  0  0  0  0  0999 V2000
 -126.1233  -61.1582  -24.4100 P   0  0  1  0  0  0  0  0  0  0  0  0
 -124.8219  -63.6255  -24.5269 P   0  0  2  0  0  0  0  0  0  0  0  0
 -126.4982  -60.7019  -26.9240 C   0  0  0  0  0  0  0  0  0  0  0  0
 -125.5001  -60.7705  -25.9342 O   0  0  0  0  0  0  0  0  0  0  0  0
 -126.0118  -59.6915  -27.9707 C   0  0  1  0  0  0  0  0  0  0  0  0
 -126.5953  -59.9812  -29.2253 O   0  0  0  0  0  0  0  0  0  0  0  0
 -126.3616  -58.2597  -27.5466 C   0  0  1  0  0  0  0  0  0  0  0  0
 -125.2512  -57.4193  -27.7559 O   0  0  0  0  0  0  0  0  0  0  0  0
 -127.5291  -57.9354  -28.4649 C   0  0  1  0  0  0  0  0  0  0  0  0
 -127.6318  -56.5623  -28.7567 O   0  0  0  0  0  0  0  0  0  0  0  0
 -127.2433  -58.8211  -29.6857 C   0  0  2  0  0  0  0  0  0  0  0  0
 -128.8162  -60.4746  -34.2745 N   0  0  0  0  0  0  0  0  0  0  0  0
 -125.2200  -60.5782  -23.3432 O   0  0  0  0  0  0  0  0  0  0  0  0
 -125.0515  -64.7131  -25.5461 O   0  0  0  0  0  0  0  0  0  0  0  0
 -127.5815  -59.9957  -33.8929 C   0  0  0  0  0  0  0  0  0  0  0  0
 -126.5118  -59.9545  -34.8325 N   0  0  0  0  0  0  0  0  0  0  0  0
 -127.6980  -60.6170  -24.1885 O   0  0  0  0  0  0  0  0  0  0  0  0
 -123.5426  -62.6449  -24.9933 O   0  0  0  0  0  0  0  0  0  0  0  0
 -127.3763  -59.5564  -32.6141 N   0  0  0  0  0  0  0  0  0  0  0  0
 -124.3584  -64.2905  -23.0614 O   0  0  0  0  0  0  0  0  0  0  0  0
 -126.2765  -62.8225  -24.2714 O   0  0  0  0  0  0  0  0  0  0  0  0
 -128.4232  -59.6018  -31.7473 C   0  0  0  0  0  0  0  0  0  0  0  0
 -129.6458  -60.0786  -32.0923 C   0  0  0  0  0  0  0  0  0  0  0  0
 -129.8666  -60.5325  -33.3932 C   0  0  0  0  0  0  0  0  0  0  0  0
 -130.9884  -60.9841  -33.7544 O   0  0  0  0  0  0  0  0  0  0  0  0
 -122.4381  -66.4035  -19.1859 C   0  0  0  0  0  0  0  0  0  0  0  0
 -130.4780  -60.0505  -31.0288 N   0  0  0  0  0  0  0  0  0  0  0  0
 -129.6907  -59.5372  -30.0405 C   0  0  0  0  0  0  0  0  0  0  0  0
 -121.5168  -65.8693  -18.4244 N   0  0  0  0  0  0  0  0  0  0  0  0
 -128.4298  -59.2234  -30.4584 N   0  0  0  0  0  0  0  0  0  0  0  0
 -125.3044  -65.1808  -22.5327 C   0  0  0  0  0  0  0  0  0  0  0  0
 -124.5515  -65.8240  -21.3576 C   0  0  1  0  0  0  0  0  0  0  0  0
 -124.0758  -64.7735  -20.5500 O   0  0  0  0  0  0  0  0  0  0  0  0
 -125.3240  -66.8614  -20.5377 C   0  0  0  0  0  0  0  0  0  0  0  0
 -126.9065  -67.4388  -21.1971 S   0  0  0  0  0  0  0  0  0  0  0  0
 -124.8911  -67.4129  -19.3563 C   0  0  0  0  0  0  0  0  0  0  0  0
 -125.9790  -68.5679  -18.4854 S   0  0  0  0  0  0  0  0  0  0  0  0
 -123.6104  -67.1509  -18.5645 C   0  0  2  0  0  0  0  0  0  0  0  0
 -124.1311  -66.3476  -14.4772 O   0  0  0  0  0  0  0  0  0  0  0  0
 -123.0421  -66.0322  -15.0340 C   0  0  0  0  0  0  0  0  0  0  0  0
 -123.9578  -66.5534  -17.2727 N   0  0  0  0  0  0  0  0  0  0  0  0
 -122.9003  -66.1228  -16.4211 C   0  0  0  0  0  0  0  0  0  0  0  0
 -119.6979  -64.8174  -14.0853 N   0  0  0  0  0  0  0  0  0  0  0  0
 -120.7924  -65.2675  -14.8754 C   0  0  0  0  0  0  0  0  0  0  0  0
 -121.9819  -65.6057  -14.2870 N   0  0  0  0  0  0  0  0  0  0  0  0
 -120.6472  -65.3573  -16.2228 N   0  0  0  0  0  0  0  0  0  0  0  0
 -121.6728  -65.7807  -17.0021 C   0  0  0  0  0  0  0  0  0  0  0  0
 -127.5055  -60.4050  -26.5587 H   0  0  0  0  0  0  0  0  0  0  0  0
 -126.5890  -61.7052  -27.3941 H   0  0  0  0  0  0  0  0  0  0  0  0
 -124.9086  -59.7986  -28.0837 H   0  0  0  0  0  0  0  0  0  0  0  0
 -126.6781  -58.1994  -26.4769 H   0  0  0  0  0  0  0  0  0  0  0  0
 -125.4147  -56.5926  -27.2309 H   0  0  0  0  0  0  0  0  0  0  0  0
 -128.4599  -58.2577  -27.9551 H   0  0  0  0  0  0  0  0  0  0  0  0
 -126.8674  -56.3050  -29.3346 H   0  0  0  0  0  0  0  0  0  0  0  0
 -126.5380  -58.2890  -30.3638 H   0  0  0  0  0  0  0  0  0  0  0  0
 -128.9574  -60.8072  -35.2554 H   0  0  0  0  0  0  0  0  0  0  0  0
 -126.4920  -60.6060  -35.6481 H   0  0  0  0  0  0  0  0  0  0  0  0
 -125.7331  -59.2691  -34.7142 H   0  0  0  0  0  0  0  0  0  0  0  0
 -127.9376  -60.8989  -23.2697 H   0  0  0  0  0  0  0  0  0  0  0  0
 -123.4953  -61.9410  -24.2981 H   0  0  0  0  0  0  0  0  0  0  0  0
 -122.1949  -66.5531  -20.2247 H   0  0  0  0  0  0  0  0  0  0  0  0
 -130.0385  -59.4262  -29.0234 H   0  0  0  0  0  0  0  0  0  0  0  0
 -125.5857  -65.9632  -23.2732 H   0  0  0  0  0  0  0  0  0  0  0  0
 -126.2002  -64.6284  -22.1716 H   0  0  0  0  0  0  0  0  0  0  0  0
 -123.6824  -66.3509  -21.8035 H   0  0  0  0  0  0  0  0  0  0  0  0
 -123.5464  -65.1811  -19.8145 H   0  0  0  0  0  0  0  0  0  0  0  0
 -127.2178  -66.1653  -21.7093 H   0  0  0  0  0  0  0  0  0  0  0  0
 -125.4148  -69.6783  -19.1411 H   0  0  0  0  0  0  0  0  0  0  0  0
 -123.1944  -68.1594  -18.3480 H   0  0  0  0  0  0  0  0  0  0  0  0
 -124.9361  -66.5702  -16.9054 H   0  0  0  0  0  0  0  0  0  0  0  0
 -118.7921  -64.5594  -14.5363 H   0  0  0  0  0  0  0  0  0  0  0  0
 -119.7855  -64.7394  -13.0478 H   0  0  0  0  0  0  0  0  0  0  0  0
 -122.0822  -65.5360  -13.2488 H   0  0  0  0  0  0  0  0  0  0  0  0
  4  3  1  0
  1  4  1  6
  5  3  1  0
  6  5  1  0
  7  5  1  0
  7  8  1  0
  9  7  1  0
  9 10  1  0
 11  6  1  0
 11  9  1  0
 13  1  2  0
 14  2  2  0
 15 12  1  0
 16 15  1  0
 17  1  1  0
  2 18  1  6
 19 15  2  0
 20  2  1  0
 21  1  1  0
 21  2  1  0
 22 19  1  0
 23 22  2  0
 24 12  1  0
 24 23  1  0
 25 24  2  0
 27 23  1  0
 28 27  2  0
 29 26  2  0
 30 22  1  0
 30 28  1  0
 11 30  1  0
 31 20  1  0
 32 31  1  0
 32 33  1  0
 34 32  1  0
 35 34  1  0
 36 34  2  3
 37 36  1  0
 38 36  1  0
 38 26  1  0
 40 39  2  0
 41 38  1  0
 42 41  1  0
 42 40  1  0
 44 43  1  0
 45 44  1  0
 45 40  1  0
 46 44  2  0
 47 29  1  0
 47 42  2  0
 47 46  1  0
  3 48  1  0
  3 49  1  0
  5 50  1  6
  7 51  1  1
  8 52  1  0
  9 53  1  1
 10 54  1  0
 11 55  1  6
 12 56  1  0
 16 57  1  0
 16 58  1  0
 17 59  1  0
 18 60  1  0
 26 61  1  0
 28 62  1  0
 31 63  1  0
 31 64  1  0
 32 65  1  6
 33 66  1  0
 35 67  1  0
 37 68  1  0
 38 69  1  1
 41 70  1  0
 43 71  1  0
 43 72  1  0
 45 73  1  0
M  END
