
     RDKit          3D

 32 32  0  0  0  0  0  0  0  0999 V2000
   37.3956   40.7967   -3.8679 N   0  0  0  0  0  0  0  0  0  0  0  0
   37.4617   42.2537   -3.9133 C   0  0  2  0  0  0  0  0  0  0  0  0
   39.3684   39.3439   -4.4226 C   0  0  0  0  0  0  0  0  0  0  0  0
   38.5253   42.7233   -2.9207 C   0  0  0  0  0  0  0  0  0  0  0  0
   36.1024   42.8576   -3.5343 C   0  0  0  0  0  0  0  0  0  0  0  0
   37.9592   42.8412   -1.5388 C   0  0  0  0  0  0  0  0  0  0  0  0
   35.0065   42.8767   -4.9772 S   0  0  0  0  0  0  0  0  0  0  0  0
   37.6190   41.6741   -0.8368 C   0  0  0  0  0  0  0  0  0  0  0  0
   37.7943   44.0944   -0.9293 C   0  0  0  0  0  0  0  0  0  0  0  0
   37.1328   41.7518    0.4660 C   0  0  0  0  0  0  0  0  0  0  0  0
   37.3009   44.1690    0.3753 C   0  0  0  0  0  0  0  0  0  0  0  0
   36.9756   42.9996    1.0717 C   0  0  0  0  0  0  0  0  0  0  0  0
   38.0450   39.9399   -4.8047 C   0  0  0  0  0  0  0  0  0  0  0  0
   37.5161   39.6836   -5.9229 O   0  0  0  0  0  0  0  0  0  0  0  0
   39.7747   38.2232   -5.3493 C   0  0  0  0  0  0  0  0  0  0  0  0
   38.9813   37.2852   -5.6462 O   0  0  0  0  0  0  0  0  0  0  0  0
   41.0646   38.1916   -5.8472 O   0  0  0  0  0  0  0  0  0  0  0  0
   37.0042   40.3605   -3.0016 H   0  0  0  0  0  0  0  0  0  0  0  0
   37.7308   42.6046   -4.9345 H   0  0  0  0  0  0  0  0  0  0  0  0
   40.1426   40.1411   -4.4251 H   0  0  0  0  0  0  0  0  0  0  0  0
   39.3033   38.9474   -3.3873 H   0  0  0  0  0  0  0  0  0  0  0  0
   38.9565   43.6929   -3.2567 H   0  0  0  0  0  0  0  0  0  0  0  0
   39.3632   41.9923   -2.8841 H   0  0  0  0  0  0  0  0  0  0  0  0
   36.2180   43.9146   -3.2119 H   0  0  0  0  0  0  0  0  0  0  0  0
   35.6252   42.2965   -2.7021 H   0  0  0  0  0  0  0  0  0  0  0  0
   35.6626   41.7919   -5.5902 H   0  0  0  0  0  0  0  0  0  0  0  0
   37.7507   40.7000   -1.2917 H   0  0  0  0  0  0  0  0  0  0  0  0
   38.0477   45.0050   -1.4576 H   0  0  0  0  0  0  0  0  0  0  0  0
   36.8795   40.8492    1.0069 H   0  0  0  0  0  0  0  0  0  0  0  0
   37.1732   45.1333    0.8499 H   0  0  0  0  0  0  0  0  0  0  0  0
   36.5971   43.0632    2.0837 H   0  0  0  0  0  0  0  0  0  0  0  0
   41.7573   37.5443   -5.4905 H   0  0  0  0  0  0  0  0  0  0  0  0
  2  1  1  0
  2  4  1  0
  5  2  1  0
  6  4  1  0
  7  5  1  0
  8  6  2  0
  9  6  1  0
 10  8  1  0
 11  9  2  0
 12 11  1  0
 12 10  2  0
 13  1  1  0
 13  3  1  0
 14 13  2  0
 15  3  1  0
 16 15  2  0
 17 15  1  0
  1 18  1  0
  2 19  1  6
  3 20  1  0
  3 21  1  0
  4 22  1  0
  4 23  1  0
  5 24  1  0
  5 25  1  0
  7 26  1  0
  8 27  1  0
  9 28  1  0
 10 29  1  0
 11 30  1  0
 12 31  1  0
 17 32  1  0
M  END
