
     RDKit          3D

 41 42  0  0  0  0  0  0  0  0999 V2000
   25.7815   15.8122    8.1139 P   0  0  2  0  0  0  0  0  0  0  0  0
   25.2774   16.5005    5.3758 P   0  0  0  0  0  0  0  0  0  0  0  0
   24.3890   14.0783    6.8303 C   0  0  0  0  0  0  0  0  0  0  0  0
   25.2838   14.2003    7.9194 O   0  0  0  0  0  0  0  0  0  0  0  0
   23.0635   13.4363    7.2779 C   0  0  1  0  0  0  0  0  0  0  0  0
   23.1930   12.0321    7.3351 O   0  0  0  0  0  0  0  0  0  0  0  0
   22.5364   13.9344    8.6262 C   0  0  1  0  0  0  0  0  0  0  0  0
   21.1584   14.1971    8.5188 O   0  0  0  0  0  0  0  0  0  0  0  0
   22.8479   12.8049    9.5810 C   0  0  0  0  0  0  0  0  0  0  0  0
   22.9438   11.5936    8.6567 C   0  0  2  0  0  0  0  0  0  0  0  0
   23.9860   10.6120    9.0733 N   0  0  0  0  0  0  0  0  0  0  0  0
   26.9283   15.8301    9.0994 O   0  0  0  0  0  0  0  0  0  0  0  0
   25.1043   17.9807    5.1586 O   0  0  0  0  0  0  0  0  0  0  0  0
   25.3160   10.8234    8.7859 C   0  0  0  0  0  0  0  0  0  0  0  0
   25.6781   11.8348    8.1215 O   0  0  0  0  0  0  0  0  0  0  0  0
   24.5139   16.7304    8.7128 O   0  0  0  0  0  0  0  0  0  0  0  0
   23.7696   15.7798    5.5326 O   0  0  0  0  0  0  0  0  0  0  0  0
   26.2655    9.9407    9.2186 N   0  0  0  0  0  0  0  0  0  0  0  0
   26.4009   16.2956    6.6213 O   0  0  0  0  0  0  0  0  0  0  0  0
   26.0481   15.8230    4.0520 O   0  0  0  0  0  0  0  0  0  0  0  0
   25.9415    8.8381    9.9487 C   0  0  0  0  0  0  0  0  0  0  0  0
   26.8537    8.0474   10.3224 O   0  0  0  0  0  0  0  0  0  0  0  0
   24.5950    8.6021   10.2786 C   0  0  0  0  0  0  0  0  0  0  0  0
   24.1634    7.3924   11.0687 C   0  0  0  0  0  0  0  0  0  0  0  0
   23.6354    9.5135    9.8179 C   0  0  0  0  0  0  0  0  0  0  0  0
   24.1411   15.0359    6.3175 H   0  0  0  0  0  0  0  0  0  0  0  0
   24.8621   13.4344    6.0585 H   0  0  0  0  0  0  0  0  0  0  0  0
   22.3190   13.6641    6.4818 H   0  0  0  0  0  0  0  0  0  0  0  0
   23.0203   14.8365    9.0108 H   0  0  0  0  0  0  0  0  0  0  0  0
   20.6662   13.3467    8.6670 H   0  0  0  0  0  0  0  0  0  0  0  0
   22.0522   12.6755   10.3471 H   0  0  0  0  0  0  0  0  0  0  0  0
   23.8114   13.0028   10.0983 H   0  0  0  0  0  0  0  0  0  0  0  0
   21.9374   11.1212    8.6469 H   0  0  0  0  0  0  0  0  0  0  0  0
   24.1270   17.2025    7.9386 H   0  0  0  0  0  0  0  0  0  0  0  0
   23.2039   16.4619    5.9755 H   0  0  0  0  0  0  0  0  0  0  0  0
   27.2692   10.1173    8.9832 H   0  0  0  0  0  0  0  0  0  0  0  0
   25.4385   15.9907    3.2895 H   0  0  0  0  0  0  0  0  0  0  0  0
   23.1580    7.5416   11.5173 H   0  0  0  0  0  0  0  0  0  0  0  0
   24.8795    7.1975   11.8947 H   0  0  0  0  0  0  0  0  0  0  0  0
   24.1308    6.5075   10.3995 H   0  0  0  0  0  0  0  0  0  0  0  0
   22.6017    9.3392   10.0662 H   0  0  0  0  0  0  0  0  0  0  0  0
  4  3  1  0
  1  4  1  6
  5  3  1  0
  6  5  1  0
  7  5  1  0
  7  8  1  0
  9  7  1  0
 10  9  1  0
 10  6  1  0
 10 11  1  0
 12  1  2  0
 13  2  2  0
 14 11  1  0
 15 14  2  0
 16  1  1  0
 17  2  1  0
 18 14  1  0
 19  1  1  0
 19  2  1  0
 20  2  1  0
 21 18  1  0
 22 21  2  0
 23 21  1  0
 24 23  1  0
 25 23  2  0
 25 11  1  0
  3 26  1  0
  3 27  1  0
  5 28  1  6
  7 29  1  1
  8 30  1  0
  9 31  1  0
  9 32  1  0
 10 33  1  6
 16 34  1  0
 17 35  1  0
 18 36  1  0
 20 37  1  0
 24 38  1  0
 24 39  1  0
 24 40  1  0
 25 41  1  0
M  END
