
     RDKit          3D

 50 52  0  0  0  0  0  0  0  0999 V2000
  -22.8493   -2.0532    9.2743 N   0  0  0  0  0  0  0  0  0  0  0  0
  -23.2239   -0.6432    9.1183 C   0  0  2  0  0  0  0  0  0  0  0  0
  -22.5237   -0.0686    7.9239 C   0  0  0  0  0  0  0  0  0  0  0  0
  -21.8169    0.9685    8.0320 O   0  0  0  0  0  0  0  0  0  0  0  0
  -22.9086    0.1730   10.3929 C   0  0  0  0  0  0  0  0  0  0  0  0
  -23.5731   -0.4649   11.6246 C   0  0  0  0  0  0  0  0  0  0  0  0
  -24.0049    0.5600   12.6993 C   0  0  2  0  0  0  0  0  0  0  0  0
  -22.9602    0.7156   13.7175 N   0  0  0  0  0  0  0  0  0  0  0  0
  -25.3069    0.1050   13.4027 C   0  0  0  0  0  0  0  0  0  0  0  0
  -26.5820    0.2786   12.5491 C   0  0  1  0  0  0  0  0  0  0  0  0
  -27.5975   -0.5561   13.0581 O   0  0  0  0  0  0  0  0  0  0  0  0
  -27.1128    1.7266   12.5376 C   0  0  1  0  0  0  0  0  0  0  0  0
  -27.0796    2.2354   11.2275 O   0  0  0  0  0  0  0  0  0  0  0  0
  -28.5498    1.5832   13.0140 C   0  0  1  0  0  0  0  0  0  0  0  0
  -29.4436    2.3722   12.2698 O   0  0  0  0  0  0  0  0  0  0  0  0
  -28.8056    0.0995   12.7853 C   0  0  2  0  0  0  0  0  0  0  0  0
  -22.6367   -0.7020    6.6984 O   0  0  0  0  0  0  0  0  0  0  0  0
  -33.1218   -2.6992   12.9828 N   0  0  0  0  0  0  0  0  0  0  0  0
  -32.4437   -2.2479   11.8835 C   0  0  0  0  0  0  0  0  0  0  0  0
  -31.3204   -1.4834   12.0276 N   0  0  0  0  0  0  0  0  0  0  0  0
  -30.9051   -1.1872   13.2831 C   0  0  0  0  0  0  0  0  0  0  0  0
  -31.5493   -1.6323   14.3817 C   0  0  0  0  0  0  0  0  0  0  0  0
  -32.6940   -2.4087   14.2447 C   0  0  0  0  0  0  0  0  0  0  0  0
  -33.4113   -2.8894   15.3724 N   0  0  0  0  0  0  0  0  0  0  0  0
  -30.9114   -1.2281   15.4954 N   0  0  0  0  0  0  0  0  0  0  0  0
  -29.8609   -0.5176   15.0069 C   0  0  0  0  0  0  0  0  0  0  0  0
  -29.8476   -0.4498   13.6504 N   0  0  0  0  0  0  0  0  0  0  0  0
  -22.1189   -2.1566   10.0165 H   0  0  0  0  0  0  0  0  0  0  0  0
  -23.6876   -2.6078    9.5606 H   0  0  0  0  0  0  0  0  0  0  0  0
  -24.3152   -0.5835    8.9068 H   0  0  0  0  0  0  0  0  0  0  0  0
  -21.8081    0.2362   10.5280 H   0  0  0  0  0  0  0  0  0  0  0  0
  -23.3018    1.2073   10.2789 H   0  0  0  0  0  0  0  0  0  0  0  0
  -22.8784   -1.1944   12.0922 H   0  0  0  0  0  0  0  0  0  0  0  0
  -24.4561   -1.0327   11.2692 H   0  0  0  0  0  0  0  0  0  0  0  0
  -24.1790    1.5472   12.2185 H   0  0  0  0  0  0  0  0  0  0  0  0
  -22.0988    0.1918   13.4370 H   0  0  0  0  0  0  0  0  0  0  0  0
  -22.7141    1.7268   13.8140 H   0  0  0  0  0  0  0  0  0  0  0  0
  -25.4372    0.6749   14.3496 H   0  0  0  0  0  0  0  0  0  0  0  0
  -25.2073   -0.9642   13.6939 H   0  0  0  0  0  0  0  0  0  0  0  0
  -26.3816   -0.0569   11.5097 H   0  0  0  0  0  0  0  0  0  0  0  0
  -26.5554    2.4015   13.2292 H   0  0  0  0  0  0  0  0  0  0  0  0
  -26.1525    2.1093   10.8971 H   0  0  0  0  0  0  0  0  0  0  0  0
  -28.6071    1.8418   14.0950 H   0  0  0  0  0  0  0  0  0  0  0  0
  -29.1094    2.3674   11.3351 H   0  0  0  0  0  0  0  0  0  0  0  0
  -29.0803   -0.0725   11.7172 H   0  0  0  0  0  0  0  0  0  0  0  0
  -21.8136   -1.0055    6.1919 H   0  0  0  0  0  0  0  0  0  0  0  0
  -32.8006   -2.4960   10.8935 H   0  0  0  0  0  0  0  0  0  0  0  0
  -34.1774   -2.3255   15.8033 H   0  0  0  0  0  0  0  0  0  0  0  0
  -33.1782   -3.8195   15.7855 H   0  0  0  0  0  0  0  0  0  0  0  0
  -29.1016   -0.0849   15.6441 H   0  0  0  0  0  0  0  0  0  0  0  0
  2  1  1  0
  3  2  1  0
  4  3  2  0
  5  2  1  0
  6  5  1  0
  7  6  1  0
  7  8  1  0
  9  7  1  0
 10  9  1  0
 11 10  1  0
 12 10  1  0
 12 13  1  0
 14 12  1  0
 14 15  1  0
 16 14  1  0
 16 11  1  0
 17  3  1  0
 19 18  2  0
 20 19  1  0
 21 20  2  0
 22 21  1  0
 23 22  2  0
 23 18  1  0
 24 23  1  0
 25 22  1  0
 26 25  2  0
 27 26  1  0
 27 21  1  0
 16 27  1  0
  1 28  1  0
  1 29  1  0
  2 30  1  6
  5 31  1  0
  5 32  1  0
  6 33  1  0
  6 34  1  0
  7 35  1  6
  8 36  1  0
  8 37  1  0
  9 38  1  0
  9 39  1  0
 10 40  1  6
 12 41  1  1
 13 42  1  0
 14 43  1  1
 15 44  1  0
 16 45  1  6
 17 46  1  0
 19 47  1  0
 24 48  1  0
 24 49  1  0
 26 50  1  0
M  END
