
     RDKit          3D

 58 60  0  0  0  0  0  0  0  0999 V2000
   -2.7891   -3.7314   -2.1957 N   0  0  0  0  0  0  0  0  0  0  0  0
   -2.5508   -2.3353   -1.8208 C   0  0  2  0  0  0  0  0  0  0  0  0
   -1.8273   -1.6341   -2.9138 C   0  0  0  0  0  0  0  0  0  0  0  0
   -1.3222   -2.2791   -3.8741 O   0  0  0  0  0  0  0  0  0  0  0  0
   -1.7297   -2.2197   -0.5250 C   0  0  0  0  0  0  0  0  0  0  0  0
   -2.5524   -2.6238    0.6948 C   0  0  0  0  0  0  0  0  0  0  0  0
   -1.7196   -2.4778    1.9709 C   0  0  0  0  0  0  0  0  0  0  0  0
   -1.7052   -3.7752    2.7794 C   0  0  0  0  0  0  0  0  0  0  0  0
   -2.8776   -3.8571    3.6457 N   0  0  0  0  0  0  0  0  0  0  0  0
    1.4753    0.2701   -3.0141 C   0  0  0  0  0  0  0  0  0  0  0  0
    0.7223   -0.1438   -4.1239 O   0  0  0  0  0  0  0  0  0  0  0  0
    2.7862    0.8641   -3.5255 C   0  0  1  0  0  0  0  0  0  0  0  0
    3.3803    0.0254   -4.4930 O   0  0  0  0  0  0  0  0  0  0  0  0
    2.6016    2.2131   -4.1951 C   0  0  1  0  0  0  0  0  0  0  0  0
    2.4588    3.2447   -3.2538 O   0  0  0  0  0  0  0  0  0  0  0  0
    3.8998    2.3232   -4.9571 C   0  0  1  0  0  0  0  0  0  0  0  0
    4.9079    2.8393   -4.1204 O   0  0  0  0  0  0  0  0  0  0  0  0
    4.2052    0.8560   -5.2933 C   0  0  2  0  0  0  0  0  0  0  0  0
    6.2315    0.2387  -10.0115 N   0  0  0  0  0  0  0  0  0  0  0  0
   -1.4620    0.1951   -5.4133 O   0  0  0  0  0  0  0  0  0  0  0  0
   -0.8099    0.5185   -4.1028 S   0  0  0  0  0  0  0  0  0  0  0  0
    6.8736    0.5467   -8.8438 C   0  0  0  0  0  0  0  0  0  0  0  0
   -0.7730    2.0003   -3.8922 O   0  0  0  0  0  0  0  0  0  0  0  0
    6.1701    0.6817   -7.6798 N   0  0  0  0  0  0  0  0  0  0  0  0
    4.8260    0.5106   -7.7209 C   0  0  0  0  0  0  0  0  0  0  0  0
    4.1696    0.2147   -8.8628 C   0  0  0  0  0  0  0  0  0  0  0  0
    4.8798    0.0649  -10.0486 C   0  0  0  0  0  0  0  0  0  0  0  0
    4.2355   -0.2692  -11.2688 N   0  0  0  0  0  0  0  0  0  0  0  0
    2.8478    0.1027   -8.6300 N   0  0  0  0  0  0  0  0  0  0  0  0
    2.7492    0.3426   -7.2954 C   0  0  0  0  0  0  0  0  0  0  0  0
   -1.6928   -0.2263   -2.8547 N   0  0  0  0  0  0  0  0  0  0  0  0
    3.9486    0.5838   -6.7086 N   0  0  0  0  0  0  0  0  0  0  0  0
   -1.9125   -4.2917   -2.0826 H   0  0  0  0  0  0  0  0  0  0  0  0
   -3.5144   -4.1388   -1.5629 H   0  0  0  0  0  0  0  0  0  0  0  0
   -3.5314   -1.8244   -1.6901 H   0  0  0  0  0  0  0  0  0  0  0  0
   -1.3980   -1.1677   -0.3799 H   0  0  0  0  0  0  0  0  0  0  0  0
   -0.8154   -2.8505   -0.5924 H   0  0  0  0  0  0  0  0  0  0  0  0
   -3.4527   -1.9737    0.7632 H   0  0  0  0  0  0  0  0  0  0  0  0
   -2.8799   -3.6803    0.5950 H   0  0  0  0  0  0  0  0  0  0  0  0
   -2.1490   -1.6761    2.6112 H   0  0  0  0  0  0  0  0  0  0  0  0
   -0.6773   -2.1901    1.7101 H   0  0  0  0  0  0  0  0  0  0  0  0
   -1.6908   -4.6425    2.0822 H   0  0  0  0  0  0  0  0  0  0  0  0
   -0.7823   -3.8174    3.3990 H   0  0  0  0  0  0  0  0  0  0  0  0
   -2.8433   -4.7775    4.1408 H   0  0  0  0  0  0  0  0  0  0  0  0
   -3.7307   -3.8768    3.0405 H   0  0  0  0  0  0  0  0  0  0  0  0
    0.9676    0.9925   -2.3345 H   0  0  0  0  0  0  0  0  0  0  0  0
    1.7090   -0.6290   -2.4053 H   0  0  0  0  0  0  0  0  0  0  0  0
    3.4801    0.9632   -2.6576 H   0  0  0  0  0  0  0  0  0  0  0  0
    1.7514    2.2027   -4.9175 H   0  0  0  0  0  0  0  0  0  0  0  0
    1.4972    3.2812   -3.0138 H   0  0  0  0  0  0  0  0  0  0  0  0
    3.7737    2.9620   -5.8629 H   0  0  0  0  0  0  0  0  0  0  0  0
    5.6702    3.0729   -4.7119 H   0  0  0  0  0  0  0  0  0  0  0  0
    5.2683    0.6171   -5.0653 H   0  0  0  0  0  0  0  0  0  0  0  0
    7.9467    0.6792   -8.8404 H   0  0  0  0  0  0  0  0  0  0  0  0
    4.7936   -0.3795  -12.1444 H   0  0  0  0  0  0  0  0  0  0  0  0
    3.2014   -0.4089  -11.3108 H   0  0  0  0  0  0  0  0  0  0  0  0
    1.8086    0.3302   -6.7602 H   0  0  0  0  0  0  0  0  0  0  0  0
   -2.1878    0.3504   -2.1384 H   0  0  0  0  0  0  0  0  0  0  0  0
  2  1  1  0
  3  2  1  0
  4  3  2  0
  5  2  1  0
  6  5  1  0
  7  6  1  0
  8  7  1  0
  9  8  1  0
 11 10  1  0
 12 10  1  0
 13 12  1  0
 14 12  1  0
 14 15  1  0
 16 14  1  0
 16 17  1  0
 18 16  1  0
 18 13  1  0
 21 20  2  0
 21 11  1  0
 22 19  2  0
 23 21  2  0
 24 22  1  0
 25 24  2  0
 26 25  1  0
 27 26  2  0
 27 19  1  0
 28 27  1  0
 29 26  1  0
 30 29  2  0
 21 31  1  0
 31  3  1  0
 32 30  1  0
 32 25  1  0
 18 32  1  0
  1 33  1  0
  1 34  1  0
  2 35  1  1
  5 36  1  0
  5 37  1  0
  6 38  1  0
  6 39  1  0
  7 40  1  0
  7 41  1  0
  8 42  1  0
  8 43  1  0
  9 44  1  0
  9 45  1  0
 10 46  1  0
 10 47  1  0
 12 48  1  1
 14 49  1  6
 15 50  1  0
 16 51  1  6
 17 52  1  0
 18 53  1  1
 22 54  1  0
 28 55  1  0
 28 56  1  0
 30 57  1  0
 31 58  1  0
M  END
