
     RDKit          3D

 58 60  0  0  0  0  0  0  0  0999 V2000
   -4.5488   -4.5968   -2.6233 N   0  0  0  0  0  0  0  0  0  0  0  0
   -3.8475   -3.5454   -1.8823 C   0  0  2  0  0  0  0  0  0  0  0  0
   -2.9023   -2.8355   -2.7836 C   0  0  0  0  0  0  0  0  0  0  0  0
   -2.3418   -3.4393   -3.7398 O   0  0  0  0  0  0  0  0  0  0  0  0
   -3.0651   -4.1102   -0.6841 C   0  0  0  0  0  0  0  0  0  0  0  0
   -3.5986   -3.5654    0.6374 C   0  0  0  0  0  0  0  0  0  0  0  0
   -2.7682   -4.0991    1.8074 C   0  0  0  0  0  0  0  0  0  0  0  0
   -3.1908   -3.4586    3.1297 C   0  0  0  0  0  0  0  0  0  0  0  0
   -2.3933   -3.9817    4.2353 N   0  0  0  0  0  0  0  0  0  0  0  0
    0.5320   -0.3540   -2.2922 C   0  0  0  0  0  0  0  0  0  0  0  0
   -0.0224   -1.1408   -3.3137 O   0  0  0  0  0  0  0  0  0  0  0  0
    1.7230    0.4059   -2.8726 C   0  0  1  0  0  0  0  0  0  0  0  0
    2.5012   -0.4282   -3.7038 O   0  0  0  0  0  0  0  0  0  0  0  0
    1.3086    1.5863   -3.7313 C   0  0  1  0  0  0  0  0  0  0  0  0
    0.9372    2.6917   -2.9499 O   0  0  0  0  0  0  0  0  0  0  0  0
    2.5887    1.8388   -4.4900 C   0  0  1  0  0  0  0  0  0  0  0  0
    3.4484    2.6528   -3.7278 O   0  0  0  0  0  0  0  0  0  0  0  0
    3.1808    0.4266   -4.6084 C   0  0  2  0  0  0  0  0  0  0  0  0
    5.3390   -0.1231   -9.2761 N   0  0  0  0  0  0  0  0  0  0  0  0
   -1.9187   -1.1661   -5.0317 O   0  0  0  0  0  0  0  0  0  0  0  0
   -1.5932   -0.6862   -3.6494 S   0  0  0  0  0  0  0  0  0  0  0  0
    5.8450    0.5101   -8.1744 C   0  0  0  0  0  0  0  0  0  0  0  0
   -1.7752    0.7970   -3.5578 O   0  0  0  0  0  0  0  0  0  0  0  0
    5.1242    0.5669   -7.0146 N   0  0  0  0  0  0  0  0  0  0  0  0
    3.8986   -0.0118   -6.9938 C   0  0  0  0  0  0  0  0  0  0  0  0
    3.3750   -0.6346   -8.0710 C   0  0  0  0  0  0  0  0  0  0  0  0
    4.1069   -0.7062   -9.2509 C   0  0  0  0  0  0  0  0  0  0  0  0
    3.6073   -1.3712  -10.4015 N   0  0  0  0  0  0  0  0  0  0  0  0
    2.1500   -1.1166   -7.7863 N   0  0  0  0  0  0  0  0  0  0  0  0
    1.9708   -0.7540   -6.4883 C   0  0  0  0  0  0  0  0  0  0  0  0
   -2.6203   -1.4693   -2.5432 N   0  0  0  0  0  0  0  0  0  0  0  0
    3.0326   -0.0855   -5.9718 N   0  0  0  0  0  0  0  0  0  0  0  0
   -3.9247   -5.4268   -2.7531 H   0  0  0  0  0  0  0  0  0  0  0  0
   -5.3838   -4.9056   -2.0757 H   0  0  0  0  0  0  0  0  0  0  0  0
   -4.5915   -2.7979   -1.5255 H   0  0  0  0  0  0  0  0  0  0  0  0
   -1.9930   -3.8240   -0.7636 H   0  0  0  0  0  0  0  0  0  0  0  0
   -3.1135   -5.2220   -0.6839 H   0  0  0  0  0  0  0  0  0  0  0  0
   -3.5491   -2.4540    0.6242 H   0  0  0  0  0  0  0  0  0  0  0  0
   -4.6565   -3.8754    0.7730 H   0  0  0  0  0  0  0  0  0  0  0  0
   -1.6925   -3.8709    1.6409 H   0  0  0  0  0  0  0  0  0  0  0  0
   -2.8801   -5.2036    1.8763 H   0  0  0  0  0  0  0  0  0  0  0  0
   -3.0619   -2.3553    3.0614 H   0  0  0  0  0  0  0  0  0  0  0  0
   -4.2672   -3.6675    3.3173 H   0  0  0  0  0  0  0  0  0  0  0  0
   -2.9391   -3.8401    5.1158 H   0  0  0  0  0  0  0  0  0  0  0  0
   -1.5312   -3.3956    4.3225 H   0  0  0  0  0  0  0  0  0  0  0  0
   -0.1718    0.3562   -1.8004 H   0  0  0  0  0  0  0  0  0  0  0  0
    0.9020   -1.0365   -1.4978 H   0  0  0  0  0  0  0  0  0  0  0  0
    2.3531    0.7584   -2.0220 H   0  0  0  0  0  0  0  0  0  0  0  0
    0.5029    1.3099   -4.4519 H   0  0  0  0  0  0  0  0  0  0  0  0
    0.1391    3.0917   -3.3820 H   0  0  0  0  0  0  0  0  0  0  0  0
    2.3759    2.3079   -5.4795 H   0  0  0  0  0  0  0  0  0  0  0  0
    4.1974    2.9075   -4.3275 H   0  0  0  0  0  0  0  0  0  0  0  0
    4.2609    0.4331   -4.3391 H   0  0  0  0  0  0  0  0  0  0  0  0
    6.8250    0.9645   -8.2197 H   0  0  0  0  0  0  0  0  0  0  0  0
    3.6320   -2.4135  -10.4578 H   0  0  0  0  0  0  0  0  0  0  0  0
    3.2103   -0.8335  -11.2039 H   0  0  0  0  0  0  0  0  0  0  0  0
    1.0752   -0.9873   -5.9273 H   0  0  0  0  0  0  0  0  0  0  0  0
   -3.0898   -0.9298   -1.7822 H   0  0  0  0  0  0  0  0  0  0  0  0
  2  1  1  0
  3  2  1  0
  4  3  2  0
  5  2  1  0
  6  5  1  0
  7  6  1  0
  8  7  1  0
  9  8  1  0
 11 10  1  0
 12 10  1  0
 13 12  1  0
 14 12  1  0
 14 15  1  0
 16 14  1  0
 16 17  1  0
 18 16  1  0
 18 13  1  0
 21 20  2  0
 21 11  1  0
 22 19  2  0
 23 21  2  0
 24 22  1  0
 25 24  2  0
 26 25  1  0
 27 26  2  0
 27 19  1  0
 28 27  1  0
 29 26  1  0
 30 29  2  0
 21 31  1  0
 31  3  1  0
 32 30  1  0
 32 25  1  0
 18 32  1  0
  1 33  1  0
  1 34  1  0
  2 35  1  1
  5 36  1  0
  5 37  1  0
  6 38  1  0
  6 39  1  0
  7 40  1  0
  7 41  1  0
  8 42  1  0
  8 43  1  0
  9 44  1  0
  9 45  1  0
 10 46  1  0
 10 47  1  0
 12 48  1  1
 14 49  1  6
 15 50  1  0
 16 51  1  6
 17 52  1  0
 18 53  1  1
 22 54  1  0
 28 55  1  0
 28 56  1  0
 30 57  1  0
 31 58  1  0
M  END
