
     RDKit          3D

 35 36  0  0  0  0  0  0  0  0999 V2000
   25.3673   -2.0285    7.8542 P   0  0  0  0  0  0  0  0  0  0  0  0
   23.1026   -0.9691    8.4414 C   0  0  0  0  0  0  0  0  0  0  0  0
   24.2849   -1.4467    9.0133 O   0  0  0  0  0  0  0  0  0  0  0  0
   22.3584   -0.2162    9.5550 C   0  0  1  0  0  0  0  0  0  0  0  0
   21.3509    0.5879    8.9883 O   0  0  0  0  0  0  0  0  0  0  0  0
   21.7191   -1.1607   10.5889 C   0  0  1  0  0  0  0  0  0  0  0  0
   21.7861   -0.6094   11.8883 O   0  0  0  0  0  0  0  0  0  0  0  0
   20.2930   -1.2535   10.1023 C   0  0  1  0  0  0  0  0  0  0  0  0
   19.3946   -1.4996   11.1540 O   0  0  0  0  0  0  0  0  0  0  0  0
   20.1128    0.1391    9.4831 C   0  0  2  0  0  0  0  0  0  0  0  0
   19.0997    0.1966    8.4030 N   0  0  0  0  0  0  0  0  0  0  0  0
   19.2968   -2.1884    8.0419 O   0  0  0  0  0  0  0  0  0  0  0  0
   18.4244    1.3643    8.1249 C   0  0  0  0  0  0  0  0  0  0  0  0
   18.6840    2.4274    8.7444 O   0  0  0  0  0  0  0  0  0  0  0  0
   17.4486    1.3905    7.1813 N   0  0  0  0  0  0  0  0  0  0  0  0
   17.0776    0.2707    6.5192 C   0  0  0  0  0  0  0  0  0  0  0  0
   16.1693    0.3280    5.6505 O   0  0  0  0  0  0  0  0  0  0  0  0
   17.6959   -0.9360    6.8087 C   0  0  0  0  0  0  0  0  0  0  0  0
   18.7104   -0.9576    7.7636 C   0  0  0  0  0  0  0  0  0  0  0  0
   24.6809   -2.6877    6.6802 O   0  0  0  0  0  0  0  0  0  0  0  0
   26.3012   -3.1559    8.6804 O   0  0  0  0  0  0  0  0  0  0  0  0
   26.3469   -0.7675    7.3237 O   0  0  0  0  0  0  0  0  0  0  0  0
   23.3292   -0.2638    7.6099 H   0  0  0  0  0  0  0  0  0  0  0  0
   22.4865   -1.8145    8.0698 H   0  0  0  0  0  0  0  0  0  0  0  0
   23.0897    0.4549   10.0598 H   0  0  0  0  0  0  0  0  0  0  0  0
   22.1980   -2.1646   10.6030 H   0  0  0  0  0  0  0  0  0  0  0  0
   21.0215   -0.9426   12.4259 H   0  0  0  0  0  0  0  0  0  0  0  0
   20.2237   -2.0782    9.3629 H   0  0  0  0  0  0  0  0  0  0  0  0
   18.5065   -1.6382   10.7330 H   0  0  0  0  0  0  0  0  0  0  0  0
   19.8715    0.8211   10.3144 H   0  0  0  0  0  0  0  0  0  0  0  0
   20.2910   -2.3217    8.1700 H   0  0  0  0  0  0  0  0  0  0  0  0
   16.9613    2.2923    6.9719 H   0  0  0  0  0  0  0  0  0  0  0  0
   17.3990   -1.8454    6.2998 H   0  0  0  0  0  0  0  0  0  0  0  0
   26.7441   -3.6861    7.9707 H   0  0  0  0  0  0  0  0  0  0  0  0
   27.0322   -0.6652    8.0314 H   0  0  0  0  0  0  0  0  0  0  0  0
  3  2  1  0
  3  1  1  0
  4  2  1  0
  5  4  1  0
  6  4  1  0
  6  7  1  0
  8  6  1  0
  8  9  1  0
 10  8  1  0
 10  5  1  0
 10 11  1  0
 13 11  1  0
 14 13  2  0
 15 13  1  0
 16 15  1  0
 17 16  2  0
 18 16  1  0
 19 18  2  0
 19 12  1  0
 19 11  1  0
 20  1  2  0
 21  1  1  0
 22  1  1  0
  2 23  1  0
  2 24  1  0
  4 25  1  1
  6 26  1  1
  7 27  1  0
  8 28  1  6
  9 29  1  0
 10 30  1  1
 12 31  1  0
 15 32  1  0
 18 33  1  0
 21 34  1  0
 22 35  1  0
M  END
