
     RDKit          3D

 41 43  0  0  0  0  0  0  0  0999 V2000
    9.5544   34.3530   20.2462 C   0  0  0  0  0  0  0  0  0  0  0  0
    8.3209   34.1478   20.8758 C   0  0  0  0  0  0  0  0  0  0  0  0
   10.7489   34.1541   20.9482 C   0  0  0  0  0  0  0  0  0  0  0  0
    7.3610   29.3732   26.2295 C   0  0  0  0  0  0  0  0  0  0  0  0
    5.6688   28.7299   27.8478 C   0  0  0  0  0  0  0  0  0  0  0  0
    7.4239   28.0557   25.7902 C   0  0  0  0  0  0  0  0  0  0  0  0
    5.7394   27.4228   27.4182 C   0  0  0  0  0  0  0  0  0  0  0  0
    9.1738   33.9065   25.3144 C   0  0  0  0  0  0  0  0  0  0  0  0
    8.0346   33.9614   27.5501 C   0  0  0  0  0  0  0  0  0  0  0  0
    8.2821   33.7383   22.2059 C   0  0  0  0  0  0  0  0  0  0  0  0
   10.7107   33.7436   22.2796 C   0  0  0  0  0  0  0  0  0  0  0  0
    6.4666   29.7054   27.2618 C   0  0  0  0  0  0  0  0  0  0  0  0
    7.1774   32.0885   27.4711 C   0  0  0  0  0  0  0  0  0  0  0  0
    6.6144   27.0823   26.3889 C   0  0  0  0  0  0  0  0  0  0  0  0
    9.4706   33.5259   22.8925 C   0  0  0  0  0  0  0  0  0  0  0  0
    8.3796   35.2561   28.0193 N   0  0  0  0  0  0  0  0  0  0  0  0
    8.4317   25.1340   25.5762 N   0  0  0  0  0  0  0  0  0  0  0  0
    7.2398   33.1647   28.2547 N   0  0  0  0  0  0  0  0  0  0  0  0
    7.8578   32.2025   26.3265 N   0  0  0  0  0  0  0  0  0  0  0  0
    9.3939   33.0439   24.2088 N   0  0  0  0  0  0  0  0  0  0  0  0
    6.3940   30.9901   27.8350 N   0  0  0  0  0  0  0  0  0  0  0  0
    6.3178   24.5194   27.0165 O   0  0  0  0  0  0  0  0  0  0  0  0
    5.9292   25.1799   24.6704 O   0  0  0  0  0  0  0  0  0  0  0  0
    9.7930   35.4298   25.3412 S   0  0  0  0  0  0  0  0  0  0  0  0
    8.4160   33.3916   26.3905 N   0  0  0  0  0  0  0  0  0  0  0  0
    6.7627   25.4213   25.8991 S   0  0  0  0  0  0  0  0  0  0  0  0
    7.0973   33.5627   22.8474 F   0  0  0  0  0  0  0  0  0  0  0  0
   11.8702   33.5612   22.9620 F   0  0  0  0  0  0  0  0  0  0  0  0
    9.5844   34.6735   19.2129 H   0  0  0  0  0  0  0  0  0  0  0  0
    7.4004   34.3143   20.3315 H   0  0  0  0  0  0  0  0  0  0  0  0
   11.6992   34.3222   20.4580 H   0  0  0  0  0  0  0  0  0  0  0  0
    8.0435   30.0934   25.8039 H   0  0  0  0  0  0  0  0  0  0  0  0
    4.9895   28.9788   28.6546 H   0  0  0  0  0  0  0  0  0  0  0  0
    8.1199   27.7872   25.0052 H   0  0  0  0  0  0  0  0  0  0  0  0
    5.1154   26.6752   27.8909 H   0  0  0  0  0  0  0  0  0  0  0  0
    9.2604   35.3740   28.5674 H   0  0  0  0  0  0  0  0  0  0  0  0
    7.9829   36.1216   27.6005 H   0  0  0  0  0  0  0  0  0  0  0  0
    8.9454   25.2636   26.4766 H   0  0  0  0  0  0  0  0  0  0  0  0
    8.5237   24.1258   25.3189 H   0  0  0  0  0  0  0  0  0  0  0  0
    9.2718   32.0121   24.3168 H   0  0  0  0  0  0  0  0  0  0  0  0
    5.7089   31.1499   28.6099 H   0  0  0  0  0  0  0  0  0  0  0  0
  2  1  2  0
  3  1  1  0
  6  4  2  0
  7  5  1  0
 10  2  1  0
 11  3  2  0
 12  5  2  0
 12  4  1  0
 14  7  2  0
 14  6  1  0
 15 11  1  0
 15 10  2  0
 16  9  1  0
 18 13  1  0
 18  9  2  0
 19 13  2  0
 20 15  1  0
 20  8  1  0
 21 12  1  0
 21 13  1  0
 24  8  2  0
 25 19  1  0
 25  8  1  0
 25  9  1  0
 26 22  2  0
 26 23  2  0
 26 17  1  0
 26 14  1  0
 27 10  1  0
 28 11  1  0
  1 29  1  0
  2 30  1  0
  3 31  1  0
  4 32  1  0
  5 33  1  0
  6 34  1  0
  7 35  1  0
 16 36  1  0
 16 37  1  0
 17 38  1  0
 17 39  1  0
 20 40  1  0
 21 41  1  0
M  END
