
     RDKit          3D

 33 34  0  0  0  0  0  0  0  0999 V2000
   -1.3084   -5.1907    4.8900 O   0  0  0  0  0  0  0  0  0  0  0  0
   -0.1618   -5.6050    4.0307 S   0  0  0  0  0  0  0  0  0  0  0  0
   -0.4428   -6.9285    3.3872 O   0  0  0  0  0  0  0  0  0  0  0  0
    0.0712   -4.4517    2.7705 N   0  0  0  0  0  0  0  0  0  0  0  0
    0.2400   -3.0802    3.2517 C   0  0  0  0  0  0  0  0  0  0  0  0
    1.6808   -2.7209    3.4025 C   0  0  0  0  0  0  0  0  0  0  0  0
    2.3094   -2.1710    2.4591 O   0  0  0  0  0  0  0  0  0  0  0  0
    2.3247   -2.9556    4.6420 N   0  0  0  0  0  0  0  0  0  0  0  0
    2.9009   -4.0423    4.8575 O   0  0  0  0  0  0  0  0  0  0  0  0
    1.1852   -5.7752    5.0930 C   0  0  0  0  0  0  0  0  0  0  0  0
    2.2814   -6.5156    4.6662 C   0  0  0  0  0  0  0  0  0  0  0  0
    3.3491   -6.7321    5.5266 C   0  0  0  0  0  0  0  0  0  0  0  0
    1.1391   -5.2568    6.3935 C   0  0  0  0  0  0  0  0  0  0  0  0
    2.2081   -5.4735    7.2579 C   0  0  0  0  0  0  0  0  0  0  0  0
    3.3262   -6.2102    6.8276 C   0  0  0  0  0  0  0  0  0  0  0  0
    4.4334   -6.5048    7.7560 C   0  0  0  0  0  0  0  0  0  0  0  0
    5.7741   -6.4603    7.3322 C   0  0  0  0  0  0  0  0  0  0  0  0
    6.8017   -6.7883    8.2216 C   0  0  0  0  0  0  0  0  0  0  0  0
    6.5000   -7.1684    9.5313 C   0  0  0  0  0  0  0  0  0  0  0  0
    5.1713   -7.2233    9.9540 C   0  0  0  0  0  0  0  0  0  0  0  0
    4.1431   -6.8960    9.0718 C   0  0  0  0  0  0  0  0  0  0  0  0
    0.8850   -4.7512    2.1854 H   0  0  0  0  0  0  0  0  0  0  0  0
   -0.3147   -2.9124    4.1990 H   0  0  0  0  0  0  0  0  0  0  0  0
   -0.2054   -2.3915    2.5034 H   0  0  0  0  0  0  0  0  0  0  0  0
    2.3114   -6.9347    3.6680 H   0  0  0  0  0  0  0  0  0  0  0  0
    4.1844   -7.3303    5.1841 H   0  0  0  0  0  0  0  0  0  0  0  0
    0.2883   -4.6847    6.7398 H   0  0  0  0  0  0  0  0  0  0  0  0
    2.1681   -5.0594    8.2577 H   0  0  0  0  0  0  0  0  0  0  0  0
    6.0252   -6.1618    6.3220 H   0  0  0  0  0  0  0  0  0  0  0  0
    7.8328   -6.7478    7.8948 H   0  0  0  0  0  0  0  0  0  0  0  0
    7.2970   -7.4235   10.2177 H   0  0  0  0  0  0  0  0  0  0  0  0
    4.9389   -7.5263   10.9668 H   0  0  0  0  0  0  0  0  0  0  0  0
    3.1190   -6.9707    9.4161 H   0  0  0  0  0  0  0  0  0  0  0  0
  2  1  2  0
  3  2  2  0
  2  4  1  0
  5  4  1  0
  6  5  1  0
  7  6  2  0
  8  6  1  0
  9  8  2  0
 10  2  1  0
 11 10  2  0
 12 11  1  0
 13 10  1  0
 14 13  2  0
 15 14  1  0
 15 12  2  0
 16 15  1  0
 17 16  2  0
 18 17  1  0
 19 18  2  0
 20 19  1  0
 21 16  1  0
 21 20  2  0
  4 22  1  0
  5 23  1  0
  5 24  1  0
 11 25  1  0
 12 26  1  0
 13 27  1  0
 14 28  1  0
 17 29  1  0
 18 30  1  0
 19 31  1  0
 20 32  1  0
 21 33  1  0
M  END
