
     RDKit          3D

 33 34  0  0  0  0  0  0  0  0999 V2000
   17.4226   40.8603   29.6413 P   0  0  0  0  0  0  0  0  0  0  0  0
   15.6750   40.3046   27.8870 C   0  0  0  0  0  0  0  0  0  0  0  0
   16.6009   41.2943   28.2461 O   0  0  0  0  0  0  0  0  0  0  0  0
   15.0930   40.7448   26.5573 C   0  0  1  0  0  0  0  0  0  0  0  0
   14.0304   39.8918   26.2015 O   0  0  0  0  0  0  0  0  0  0  0  0
   14.5887   42.1999   26.6392 C   0  0  1  0  0  0  0  0  0  0  0  0
   15.1596   42.9620   25.6040 O   0  0  0  0  0  0  0  0  0  0  0  0
   13.1054   42.0515   26.4620 C   0  0  0  0  0  0  0  0  0  0  0  0
   13.0084   40.7276   25.7316 C   0  0  2  0  0  0  0  0  0  0  0  0
   11.6925   40.0816   25.9037 N   0  0  0  0  0  0  0  0  0  0  0  0
   10.8693   39.9109   24.8178 C   0  0  0  0  0  0  0  0  0  0  0  0
   11.2107   40.3249   23.6773 O   0  0  0  0  0  0  0  0  0  0  0  0
    9.6698   39.2906   24.9539 N   0  0  0  0  0  0  0  0  0  0  0  0
    9.2481   38.8349   26.1580 C   0  0  0  0  0  0  0  0  0  0  0  0
    8.1249   38.2754   26.2494 O   0  0  0  0  0  0  0  0  0  0  0  0
   10.0599   38.9858   27.2834 C   0  0  0  0  0  0  0  0  0  0  0  0
   11.2988   39.6126   27.1315 C   0  0  0  0  0  0  0  0  0  0  0  0
   18.7525   40.2486   29.2791 O   0  0  0  0  0  0  0  0  0  0  0  0
   17.6523   42.2790   30.5087 O   0  0  0  0  0  0  0  0  0  0  0  0
   16.5067   39.7745   30.5386 O   0  0  0  0  0  0  0  0  0  0  0  0
   14.8743   40.2452   28.6571 H   0  0  0  0  0  0  0  0  0  0  0  0
   16.1279   39.2954   27.7405 H   0  0  0  0  0  0  0  0  0  0  0  0
   15.8893   40.6572   25.7830 H   0  0  0  0  0  0  0  0  0  0  0  0
   14.7821   42.6954   27.6201 H   0  0  0  0  0  0  0  0  0  0  0  0
   14.7438   43.8626   25.6494 H   0  0  0  0  0  0  0  0  0  0  0  0
   12.6593   42.8799   25.8691 H   0  0  0  0  0  0  0  0  0  0  0  0
   12.6110   41.9993   27.4566 H   0  0  0  0  0  0  0  0  0  0  0  0
   13.2252   40.9260   24.6566 H   0  0  0  0  0  0  0  0  0  0  0  0
    9.0557   39.1691   24.1156 H   0  0  0  0  0  0  0  0  0  0  0  0
    9.7438   38.6206   28.2527 H   0  0  0  0  0  0  0  0  0  0  0  0
   11.9437   39.7192   27.9957 H   0  0  0  0  0  0  0  0  0  0  0  0
   18.1931   42.0116   31.2944 H   0  0  0  0  0  0  0  0  0  0  0  0
   15.8947   39.3473   29.8875 H   0  0  0  0  0  0  0  0  0  0  0  0
  3  2  1  0
  3  1  1  0
  4  2  1  0
  5  4  1  0
  6  4  1  0
  6  7  1  0
  8  6  1  0
  9  8  1  0
  9  5  1  0
  9 10  1  0
 11 10  1  0
 12 11  2  0
 13 11  1  0
 14 13  1  0
 15 14  2  0
 16 14  1  0
 17 16  2  0
 17 10  1  0
 18  1  2  0
 19  1  1  0
 20  1  1  0
  2 21  1  0
  2 22  1  0
  4 23  1  6
  6 24  1  1
  7 25  1  0
  8 26  1  0
  8 27  1  0
  9 28  1  6
 13 29  1  0
 16 30  1  0
 17 31  1  0
 19 32  1  0
 20 33  1  0
M  END
