
     RDKit          3D

 24 24  0  0  0  0  0  0  0  0999 V2000
   13.4680   24.7805   14.8403 N   0  0  0  0  0  0  0  0  0  0  0  0
   12.8896   24.3074   16.1054 C   0  0  2  0  0  0  0  0  0  0  0  0
   13.9689   24.1320   17.1417 C   0  0  0  0  0  0  0  0  0  0  0  0
   14.5268   25.1349   17.6598 O   0  0  0  0  0  0  0  0  0  0  0  0
   12.1347   22.9742   15.8916 C   0  0  0  0  0  0  0  0  0  0  0  0
    9.6444   24.2634   13.3123 C   0  0  0  0  0  0  0  0  0  0  0  0
   11.0332   21.9057   13.8802 C   0  0  0  0  0  0  0  0  0  0  0  0
   10.1784   21.9612   12.7725 C   0  0  0  0  0  0  0  0  0  0  0  0
   10.4892   24.2031   14.4207 C   0  0  0  0  0  0  0  0  0  0  0  0
   14.3060   22.8624   17.5823 O   0  0  0  0  0  0  0  0  0  0  0  0
   11.2009   23.0275   14.7081 C   0  0  0  0  0  0  0  0  0  0  0  0
    9.4786   23.1475   12.4876 C   0  0  0  0  0  0  0  0  0  0  0  0
    8.6123   23.2472   11.4005 O   0  0  0  0  0  0  0  0  0  0  0  0
   10.0017   20.2494   11.5525 I   0  0  0  0  0  0  0  0  0  0  0  0
   12.7231   24.7879   14.1070 H   0  0  0  0  0  0  0  0  0  0  0  0
   13.7402   25.7844   14.9534 H   0  0  0  0  0  0  0  0  0  0  0  0
   12.1885   25.0768   16.4964 H   0  0  0  0  0  0  0  0  0  0  0  0
   11.5215   22.7409   16.7892 H   0  0  0  0  0  0  0  0  0  0  0  0
   12.8740   22.1512   15.7720 H   0  0  0  0  0  0  0  0  0  0  0  0
    9.1041   25.1776   13.1006 H   0  0  0  0  0  0  0  0  0  0  0  0
   11.5736   20.9905   14.0872 H   0  0  0  0  0  0  0  0  0  0  0  0
   10.5795   25.0739   15.0570 H   0  0  0  0  0  0  0  0  0  0  0  0
   15.1893   22.4389   17.3239 H   0  0  0  0  0  0  0  0  0  0  0  0
    8.2835   24.1293   11.0316 H   0  0  0  0  0  0  0  0  0  0  0  0
  2  1  1  0
  3  2  1  0
  4  3  2  0
  5  2  1  0
  8  7  1  0
  9  6  2  0
 10  3  1  0
 11  9  1  0
 11  7  2  0
 11  5  1  0
 12  8  2  0
 12  6  1  0
 13 12  1  0
 14  8  1  0
  1 15  1  0
  1 16  1  0
  2 17  1  1
  5 18  1  0
  5 19  1  0
  6 20  1  0
  7 21  1  0
  9 22  1  0
 10 23  1  0
 13 24  1  0
M  END
