
     RDKit          3D

 24 24  0  0  0  0  0  0  0  0999 V2000
   22.6912   -4.8678   26.5374 C   0  0  0  0  0  0  0  0  0  0  0  0
   20.4450   -4.7275   27.4217 N   0  0  0  0  0  0  0  0  0  0  0  0
   20.5023   -7.3334   27.6651 O   0  0  0  0  0  0  0  0  0  0  0  0
   19.9886   -6.0925   28.3333 S   0  0  0  0  0  0  0  0  0  0  0  0
   23.5548   -3.0026   28.4333 C   0  0  0  0  0  0  0  0  0  0  0  0
   20.5309   -5.9812   29.7288 O   0  0  0  0  0  0  0  0  0  0  0  0
   21.7962   -4.3354   27.4637 C   0  0  0  0  0  0  0  0  0  0  0  0
   18.3300   -6.1145   28.3662 O   0  0  0  0  0  0  0  0  0  0  0  0
   24.0233   -4.4656   26.5543 C   0  0  0  0  0  0  0  0  0  0  0  0
   24.4652   -3.5329   27.5050 C   0  0  0  0  0  0  0  0  0  0  0  0
   22.2237   -3.4153   28.4211 C   0  0  0  0  0  0  0  0  0  0  0  0
   25.8960   -3.0754   27.5010 C   0  0  0  0  0  0  0  0  0  0  0  0
   26.2686   -2.4941   26.1432 C   0  0  0  0  0  0  0  0  0  0  0  0
   22.3541   -5.5837   25.7980 H   0  0  0  0  0  0  0  0  0  0  0  0
   19.8767   -4.4887   26.5789 H   0  0  0  0  0  0  0  0  0  0  0  0
   23.8784   -2.2731   29.1655 H   0  0  0  0  0  0  0  0  0  0  0  0
   18.0954   -6.3341   29.3033 H   0  0  0  0  0  0  0  0  0  0  0  0
   24.7113   -4.8742   25.8244 H   0  0  0  0  0  0  0  0  0  0  0  0
   21.5242   -3.0057   29.1391 H   0  0  0  0  0  0  0  0  0  0  0  0
   26.5704   -3.9285   27.7327 H   0  0  0  0  0  0  0  0  0  0  0  0
   26.0565   -2.3049   28.2864 H   0  0  0  0  0  0  0  0  0  0  0  0
   25.9053   -1.4474   26.0591 H   0  0  0  0  0  0  0  0  0  0  0  0
   27.3730   -2.4971   26.0279 H   0  0  0  0  0  0  0  0  0  0  0  0
   25.8246   -3.1033   25.3269 H   0  0  0  0  0  0  0  0  0  0  0  0
  4  3  2  0
  4  2  1  0
  6  4  2  0
  7  2  1  0
  7  1  2  0
  4  8  1  0
  9  1  1  0
 10  9  2  0
 10  5  1  0
 11  7  1  0
 11  5  2  0
 12 10  1  0
 13 12  1  0
  1 14  1  0
  2 15  1  0
  5 16  1  0
  8 17  1  0
  9 18  1  0
 11 19  1  0
 12 20  1  0
 12 21  1  0
 13 22  1  0
 13 23  1  0
 13 24  1  0
M  END
