
     RDKit          3D

 26 25  0  0  0  0  0  0  0  0999 V2000
   -5.4203    7.5485   34.1121 P   0  0  0  0  0  0  0  0  0  0  0  0
   -4.0007    7.0384   34.0337 O   0  0  0  0  0  0  0  0  0  0  0  0
   -5.6697    8.7948   33.0152 O   0  0  0  0  0  0  0  0  0  0  0  0
   -5.7544    8.1049   35.6580 O   0  0  0  0  0  0  0  0  0  0  0  0
  -10.5088    8.3803   31.1226 C   0  0  0  0  0  0  0  0  0  0  0  0
  -11.1222    8.6325   32.1929 O   0  0  0  0  0  0  0  0  0  0  0  0
  -10.5050    9.3022   30.0912 O   0  0  0  0  0  0  0  0  0  0  0  0
   -9.7567    7.0950   30.9841 C   0  0  1  0  0  0  0  0  0  0  0  0
   -9.3532    6.8902   29.6518 O   0  0  0  0  0  0  0  0  0  0  0  0
   -8.5214    7.1192   31.8984 C   0  0  2  0  0  0  0  0  0  0  0  0
   -7.6452    8.1406   31.4910 O   0  0  0  0  0  0  0  0  0  0  0  0
   -7.7979    5.7565   31.8568 C   0  0  2  0  0  0  0  0  0  0  0  0
   -8.5761    4.7722   32.4964 O   0  0  0  0  0  0  0  0  0  0  0  0
   -6.3978    5.8282   32.4843 C   0  0  0  0  0  0  0  0  0  0  0  0
   -6.5089    6.2907   33.8115 O   0  0  0  0  0  0  0  0  0  0  0  0
   -6.6400    8.7816   32.8168 H   0  0  0  0  0  0  0  0  0  0  0  0
   -6.2981    8.9213   35.5206 H   0  0  0  0  0  0  0  0  0  0  0  0
  -11.0571   10.1495   30.1494 H   0  0  0  0  0  0  0  0  0  0  0  0
  -10.4382    6.2719   31.3018 H   0  0  0  0  0  0  0  0  0  0  0  0
  -10.0934    7.2150   29.0749 H   0  0  0  0  0  0  0  0  0  0  0  0
   -8.8482    7.3037   32.9503 H   0  0  0  0  0  0  0  0  0  0  0  0
   -7.9960    8.9921   31.8619 H   0  0  0  0  0  0  0  0  0  0  0  0
   -7.6678    5.4495   30.7958 H   0  0  0  0  0  0  0  0  0  0  0  0
   -9.5309    4.9543   32.2938 H   0  0  0  0  0  0  0  0  0  0  0  0
   -5.7428    6.4402   31.8212 H   0  0  0  0  0  0  0  0  0  0  0  0
   -5.9610    4.8069   32.5037 H   0  0  0  0  0  0  0  0  0  0  0  0
  2  1  2  0
  3  1  1  0
  4  1  1  0
  6  5  2  0
  7  5  1  0
  8  5  1  0
  8  9  1  0
 10  8  1  0
 10 11  1  0
 12 10  1  0
 12 13  1  0
 14 12  1  0
 15 14  1  0
 15  1  1  0
  3 16  1  0
  4 17  1  0
  7 18  1  0
  8 19  1  1
  9 20  1  0
 10 21  1  1
 11 22  1  0
 12 23  1  6
 13 24  1  0
 14 25  1  0
 14 26  1  0
M  END
