
     RDKit          3D

 26 25  0  0  0  0  0  0  0  0999 V2000
    6.1160   -7.2655   -0.8637 P   0  0  0  0  0  0  0  0  0  0  0  0
    5.7921   -8.1567    0.3121 O   0  0  0  0  0  0  0  0  0  0  0  0
    4.9606   -7.4415   -2.0691 O   0  0  0  0  0  0  0  0  0  0  0  0
    7.6237   -7.6527   -1.4876 O   0  0  0  0  0  0  0  0  0  0  0  0
    2.1981   -8.6514   -0.0362 C   0  0  0  0  0  0  0  0  0  0  0  0
    2.4233   -8.8330   -1.2623 O   0  0  0  0  0  0  0  0  0  0  0  0
    1.5971   -9.6494    0.7089 O   0  0  0  0  0  0  0  0  0  0  0  0
    2.5852   -7.3535    0.6055 C   0  0  1  0  0  0  0  0  0  0  0  0
    1.7463   -7.0450    1.6932 O   0  0  0  0  0  0  0  0  0  0  0  0
    4.0498   -7.4143    1.0756 C   0  0  2  0  0  0  0  0  0  0  0  0
    4.1811   -8.2808    2.1787 O   0  0  0  0  0  0  0  0  0  0  0  0
    4.5797   -5.9967    1.3880 C   0  0  2  0  0  0  0  0  0  0  0  0
    3.5993   -5.2945    2.1104 O   0  0  0  0  0  0  0  0  0  0  0  0
    4.9222   -5.2270    0.1079 C   0  0  0  0  0  0  0  0  0  0  0  0
    6.1825   -5.6498   -0.3649 O   0  0  0  0  0  0  0  0  0  0  0  0
    4.9844   -8.4028   -2.3061 H   0  0  0  0  0  0  0  0  0  0  0  0
    8.2697   -7.3339   -0.8078 H   0  0  0  0  0  0  0  0  0  0  0  0
    0.7162   -9.4866    1.1819 H   0  0  0  0  0  0  0  0  0  0  0  0
    2.4815   -6.5640   -0.1746 H   0  0  0  0  0  0  0  0  0  0  0  0
    1.4414   -6.1087    1.5642 H   0  0  0  0  0  0  0  0  0  0  0  0
    4.6682   -7.8271    0.2472 H   0  0  0  0  0  0  0  0  0  0  0  0
    4.0769   -7.7425    3.0062 H   0  0  0  0  0  0  0  0  0  0  0  0
    5.5075   -6.0847    2.0020 H   0  0  0  0  0  0  0  0  0  0  0  0
    4.0606   -4.5437    2.5681 H   0  0  0  0  0  0  0  0  0  0  0  0
    4.8383   -4.1358    0.3260 H   0  0  0  0  0  0  0  0  0  0  0  0
    4.1599   -5.4525   -0.6684 H   0  0  0  0  0  0  0  0  0  0  0  0
  2  1  2  0
  3  1  1  0
  4  1  1  0
  6  5  2  0
  7  5  1  0
  8  5  1  0
  8  9  1  0
 10  8  1  0
 10 11  1  0
 12 10  1  0
 12 13  1  0
 14 12  1  0
 15 14  1  0
 15  1  1  0
  3 16  1  0
  4 17  1  0
  7 18  1  0
  8 19  1  6
  9 20  1  0
 10 21  1  6
 11 22  1  0
 12 23  1  1
 13 24  1  0
 14 25  1  0
 14 26  1  0
M  END
