
     RDKit          3D

 63 66  0  0  0  0  0  0  0  0999 V2000
  -46.1027  -35.6611  -10.0106 P   0  0  1  0  0  0  0  0  0  0  0  0
  -45.4988  -34.6931   -7.4485 P   0  0  2  0  0  0  0  0  0  0  0  0
  -42.9083  -36.1227   -3.2271 C   0  0  0  0  0  0  0  0  0  0  0  0
  -43.2607  -36.5065   -4.6055 C   0  0  1  0  0  0  0  0  0  0  0  0
  -42.8371  -35.5156   -5.5324 O   0  0  0  0  0  0  0  0  0  0  0  0
  -42.5966  -37.8300   -4.8953 C   0  0  1  0  0  0  0  0  0  0  0  0
  -43.0446  -38.7765   -3.9754 O   0  0  0  0  0  0  0  0  0  0  0  0
  -42.9884  -38.2454   -6.2941 C   0  0  2  0  0  0  0  0  0  0  0  0
  -42.3963  -39.4505   -6.6443 O   0  0  0  0  0  0  0  0  0  0  0  0
  -42.6242  -37.1626   -7.2976 C   0  0  2  0  0  0  0  0  0  0  0  0
  -41.2423  -37.0121   -7.3925 O   0  0  0  0  0  0  0  0  0  0  0  0
  -43.2487  -35.8497   -6.8591 C   0  0  1  0  0  0  0  0  0  0  0  0
  -44.8421  -33.9011  -14.6397 C   0  0  1  0  0  0  0  0  0  0  0  0
  -42.9774  -35.5322  -19.1350 N   0  0  0  0  0  0  0  0  0  0  0  0
  -44.7697  -36.3735   -9.9717 O   0  0  0  0  0  0  0  0  0  0  0  0
  -44.6453  -36.0504   -6.9275 O   0  0  0  0  0  0  0  0  0  0  0  0
  -43.4424  -34.2859  -18.7913 C   0  0  0  0  0  0  0  0  0  0  0  0
  -46.2764  -33.9697  -14.2123 C   0  0  2  0  0  0  0  0  0  0  0  0
  -43.3966  -33.2265  -19.7373 N   0  0  0  0  0  0  0  0  0  0  0  0
  -47.2848  -36.7002  -10.5936 O   0  0  0  0  0  0  0  0  0  0  0  0
  -46.2406  -34.1637   -6.2464 O   0  0  0  0  0  0  0  0  0  0  0  0
  -47.1804  -33.7336  -15.2493 O   0  0  0  0  0  0  0  0  0  0  0  0
  -46.3094  -32.9201  -13.1374 C   0  0  2  0  0  0  0  0  0  0  0  0
  -43.9497  -34.0509  -17.5437 N   0  0  0  0  0  0  0  0  0  0  0  0
  -46.7086  -35.1667   -8.5185 O   0  0  0  0  0  0  0  0  0  0  0  0
  -44.5055  -33.4864   -8.0578 O   0  0  0  0  0  0  0  0  0  0  0  0
  -46.4824  -31.6355  -13.6793 O   0  0  0  0  0  0  0  0  0  0  0  0
  -43.9943  -35.0843  -16.6675 C   0  0  0  0  0  0  0  0  0  0  0  0
  -44.8964  -33.0169  -12.5601 C   0  0  2  0  0  0  0  0  0  0  0  0
  -44.0868  -33.7556  -13.4630 O   0  0  0  0  0  0  0  0  0  0  0  0
  -43.5573  -36.3277  -16.9800 C   0  0  0  0  0  0  0  0  0  0  0  0
  -44.8916  -33.7006  -11.1940 C   0  0  0  0  0  0  0  0  0  0  0  0
  -46.1344  -34.3336  -11.0481 O   0  0  0  0  0  0  0  0  0  0  0  0
  -43.0184  -36.5728  -18.2496 C   0  0  0  0  0  0  0  0  0  0  0  0
  -42.5788  -37.7086  -18.5784 O   0  0  0  0  0  0  0  0  0  0  0  0
  -41.7225  -35.8561   -2.9141 O   0  0  0  0  0  0  0  0  0  0  0  0
  -43.8798  -36.1848   -2.2528 O   0  0  0  0  0  0  0  0  0  0  0  0
  -43.7121  -37.1528  -15.9201 N   0  0  0  0  0  0  0  0  0  0  0  0
  -44.2559  -36.3432  -14.9672 C   0  0  0  0  0  0  0  0  0  0  0  0
  -44.4318  -35.0711  -15.4018 N   0  0  0  0  0  0  0  0  0  0  0  0
  -44.3702  -36.6193   -4.6301 H   0  0  0  0  0  0  0  0  0  0  0  0
  -41.4867  -37.7131   -4.8248 H   0  0  0  0  0  0  0  0  0  0  0  0
  -42.3680  -39.5028   -3.9529 H   0  0  0  0  0  0  0  0  0  0  0  0
  -44.0893  -38.4131   -6.3245 H   0  0  0  0  0  0  0  0  0  0  0  0
  -41.8290  -39.3079   -7.4471 H   0  0  0  0  0  0  0  0  0  0  0  0
  -43.0456  -37.4562   -8.2872 H   0  0  0  0  0  0  0  0  0  0  0  0
  -40.9256  -37.6211   -8.1102 H   0  0  0  0  0  0  0  0  0  0  0  0
  -42.8825  -35.0613   -7.5528 H   0  0  0  0  0  0  0  0  0  0  0  0
  -44.6731  -32.9879  -15.2587 H   0  0  0  0  0  0  0  0  0  0  0  0
  -42.5853  -35.6908  -20.0910 H   0  0  0  0  0  0  0  0  0  0  0  0
  -46.4975  -34.9663  -13.7699 H   0  0  0  0  0  0  0  0  0  0  0  0
  -43.7478  -32.2768  -19.4822 H   0  0  0  0  0  0  0  0  0  0  0  0
  -43.0132  -33.3819  -20.6960 H   0  0  0  0  0  0  0  0  0  0  0  0
  -47.2290  -36.6234  -11.5796 H   0  0  0  0  0  0  0  0  0  0  0  0
  -46.8808  -32.9437  -15.7706 H   0  0  0  0  0  0  0  0  0  0  0  0
  -47.1075  -33.1336  -12.3861 H   0  0  0  0  0  0  0  0  0  0  0  0
  -45.0219  -32.6491   -7.9420 H   0  0  0  0  0  0  0  0  0  0  0  0
  -47.4608  -31.4861  -13.7582 H   0  0  0  0  0  0  0  0  0  0  0  0
  -44.4522  -32.0034  -12.4351 H   0  0  0  0  0  0  0  0  0  0  0  0
  -44.0254  -34.3972  -11.1568 H   0  0  0  0  0  0  0  0  0  0  0  0
  -44.7774  -32.9195  -10.4181 H   0  0  0  0  0  0  0  0  0  0  0  0
  -43.6625  -35.9716   -1.2866 H   0  0  0  0  0  0  0  0  0  0  0  0
  -44.4844  -36.6742  -13.9621 H   0  0  0  0  0  0  0  0  0  0  0  0
  4  3  1  0
  5  4  1  0
  6  4  1  0
  6  7  1  0
  8  6  1  0
  8  9  1  0
 10  8  1  0
 10 11  1  0
 12 10  1  0
 12  5  1  0
 15  1  2  0
  2 16  1  1
 12 16  1  0
 17 14  1  0
 18 13  1  0
 19 17  1  0
  1 20  1  6
 21  2  2  0
 18 22  1  0
 23 18  1  0
 24 17  2  0
 25  2  1  0
 25  1  1  0
 26  2  1  0
 23 27  1  0
 28 24  1  0
 29 23  1  0
 30 29  1  0
 30 13  1  0
 31 28  2  0
 29 32  1  0
 33 32  1  0
 33  1  1  0
 34 31  1  0
 34 14  1  0
 35 34  2  0
 36  3  2  0
 37  3  1  0
 38 31  1  0
 39 38  2  0
 40 39  1  0
 40 28  1  0
 13 40  1  0
  4 41  1  1
  6 42  1  6
  7 43  1  0
  8 44  1  1
  9 45  1  0
 10 46  1  6
 11 47  1  0
 12 48  1  6
 13 49  1  6
 14 50  1  0
 18 51  1  1
 19 52  1  0
 19 53  1  0
 20 54  1  0
 22 55  1  0
 23 56  1  1
 26 57  1  0
 27 58  1  0
 29 59  1  1
 32 60  1  0
 32 61  1  0
 37 62  1  0
 39 63  1  0
M  END
