
     RDKit          3D

 63 66  0  0  0  0  0  0  0  0999 V2000
  -16.8162  -38.1068  -20.8308 P   0  0  1  0  0  0  0  0  0  0  0  0
  -15.4013  -38.1657  -23.2642 P   0  0  2  0  0  0  0  0  0  0  0  0
  -18.1167  -38.1307  -28.0988 C   0  0  0  0  0  0  0  0  0  0  0  0
  -18.0699  -37.9048  -26.6456 C   0  0  1  0  0  0  0  0  0  0  0  0
  -17.0431  -36.9838  -26.2996 O   0  0  0  0  0  0  0  0  0  0  0  0
  -19.4198  -37.3756  -26.2213 C   0  0  1  0  0  0  0  0  0  0  0  0
  -20.4393  -38.2501  -26.6014 O   0  0  0  0  0  0  0  0  0  0  0  0
  -19.3986  -37.1994  -24.7217 C   0  0  2  0  0  0  0  0  0  0  0  0
  -20.6127  -36.7116  -24.2607 O   0  0  0  0  0  0  0  0  0  0  0  0
  -18.2487  -36.2933  -24.3045 C   0  0  2  0  0  0  0  0  0  0  0  0
  -18.4455  -34.9882  -24.7491 O   0  0  0  0  0  0  0  0  0  0  0  0
  -16.9496  -36.8399  -24.8797 C   0  0  1  0  0  0  0  0  0  0  0  0
  -16.2976  -36.1503  -16.3060 C   0  0  1  0  0  0  0  0  0  0  0  0
  -19.6736  -35.5323  -12.4798 N   0  0  0  0  0  0  0  0  0  0  0  0
  -17.6164  -36.9935  -21.4700 O   0  0  0  0  0  0  0  0  0  0  0  0
  -16.7609  -38.0919  -24.2574 O   0  0  0  0  0  0  0  0  0  0  0  0
  -18.3777  -35.0892  -12.5678 C   0  0  0  0  0  0  0  0  0  0  0  0
  -15.3456  -37.2989  -16.4718 C   0  0  2  0  0  0  0  0  0  0  0  0
  -17.8289  -34.3016  -11.5190 N   0  0  0  0  0  0  0  0  0  0  0  0
  -17.8612  -39.2588  -20.2044 O   0  0  0  0  0  0  0  0  0  0  0  0
  -14.3962  -39.0528  -23.9586 O   0  0  0  0  0  0  0  0  0  0  0  0
  -14.8059  -37.7654  -15.2723 O   0  0  0  0  0  0  0  0  0  0  0  0
  -14.3224  -36.6919  -17.3906 C   0  0  2  0  0  0  0  0  0  0  0  0
  -17.6091  -35.3939  -13.6581 N   0  0  0  0  0  0  0  0  0  0  0  0
  -15.8207  -38.9988  -21.8637 O   0  0  0  0  0  0  0  0  0  0  0  0
  -14.6946  -36.6731  -22.9694 O   0  0  0  0  0  0  0  0  0  0  0  0
  -13.3852  -35.9182  -16.6858 O   0  0  0  0  0  0  0  0  0  0  0  0
  -18.1576  -36.1586  -14.6348 C   0  0  0  0  0  0  0  0  0  0  0  0
  -15.1776  -35.7484  -18.2295 C   0  0  2  0  0  0  0  0  0  0  0  0
  -16.4238  -35.5607  -17.5765 O   0  0  0  0  0  0  0  0  0  0  0  0
  -19.4307  -36.6206  -14.5722 C   0  0  0  0  0  0  0  0  0  0  0  0
  -15.4046  -36.2998  -19.6351 C   0  0  0  0  0  0  0  0  0  0  0  0
  -15.9092  -37.6011  -19.5016 O   0  0  0  0  0  0  0  0  0  0  0  0
  -20.2317  -36.2938  -13.4659 C   0  0  0  0  0  0  0  0  0  0  0  0
  -21.4286  -36.6783  -13.3648 O   0  0  0  0  0  0  0  0  0  0  0  0
  -19.1473  -37.8554  -28.7602 O   0  0  0  0  0  0  0  0  0  0  0  0
  -17.0567  -38.7739  -28.7024 O   0  0  0  0  0  0  0  0  0  0  0  0
  -19.7149  -37.3393  -15.6825 N   0  0  0  0  0  0  0  0  0  0  0  0
  -18.5597  -37.2785  -16.4041 C   0  0  0  0  0  0  0  0  0  0  0  0
  -17.5924  -36.5602  -15.7825 N   0  0  0  0  0  0  0  0  0  0  0  0
  -17.8775  -38.9001  -26.1807 H   0  0  0  0  0  0  0  0  0  0  0  0
  -19.6047  -36.3915  -26.7102 H   0  0  0  0  0  0  0  0  0  0  0  0
  -20.2204  -38.6169  -27.4987 H   0  0  0  0  0  0  0  0  0  0  0  0
  -19.2575  -38.1942  -24.2408 H   0  0  0  0  0  0  0  0  0  0  0  0
  -20.6761  -35.7468  -24.4878 H   0  0  0  0  0  0  0  0  0  0  0  0
  -18.1876  -36.3088  -23.1913 H   0  0  0  0  0  0  0  0  0  0  0  0
  -18.9529  -34.5073  -24.0438 H   0  0  0  0  0  0  0  0  0  0  0  0
  -16.1460  -36.1076  -24.6442 H   0  0  0  0  0  0  0  0  0  0  0  0
  -15.8564  -35.3854  -15.6236 H   0  0  0  0  0  0  0  0  0  0  0  0
  -20.2476  -35.2817  -11.6428 H   0  0  0  0  0  0  0  0  0  0  0  0
  -15.8538  -38.1464  -16.9826 H   0  0  0  0  0  0  0  0  0  0  0  0
  -16.8445  -33.9586  -11.5781 H   0  0  0  0  0  0  0  0  0  0  0  0
  -18.3988  -34.0566  -10.6791 H   0  0  0  0  0  0  0  0  0  0  0  0
  -18.6965  -38.7652  -20.0048 H   0  0  0  0  0  0  0  0  0  0  0  0
  -13.9643  -37.2745  -15.0823 H   0  0  0  0  0  0  0  0  0  0  0  0
  -13.8054  -37.4746  -17.9967 H   0  0  0  0  0  0  0  0  0  0  0  0
  -14.3660  -36.3668  -23.8523 H   0  0  0  0  0  0  0  0  0  0  0  0
  -13.8999  -35.2413  -16.1733 H   0  0  0  0  0  0  0  0  0  0  0  0
  -14.6816  -34.7565  -18.3335 H   0  0  0  0  0  0  0  0  0  0  0  0
  -14.4261  -36.3315  -20.1511 H   0  0  0  0  0  0  0  0  0  0  0  0
  -16.0911  -35.6081  -20.1716 H   0  0  0  0  0  0  0  0  0  0  0  0
  -17.0739  -38.9887  -29.6922 H   0  0  0  0  0  0  0  0  0  0  0  0
  -18.4436  -37.7259  -17.3831 H   0  0  0  0  0  0  0  0  0  0  0  0
  4  3  1  0
  5  4  1  0
  6  4  1  0
  6  7  1  0
  8  6  1  0
  8  9  1  0
 10  8  1  0
 10 11  1  0
 12 10  1  0
 12  5  1  0
 15  1  2  0
 12 16  1  0
  2 16  1  6
 17 14  1  0
 18 13  1  0
 19 17  1  0
  1 20  1  1
 21  2  2  0
 18 22  1  0
 23 18  1  0
 24 17  2  0
 25  1  1  0
 25  2  1  0
 26  2  1  0
 23 27  1  0
 28 24  1  0
 29 23  1  0
 30 29  1  0
 30 13  1  0
 31 28  2  0
 29 32  1  0
 33  1  1  0
 33 32  1  0
 34 31  1  0
 34 14  1  0
 35 34  2  0
 36  3  2  0
 37  3  1  0
 38 31  1  0
 39 38  2  0
 13 40  1  0
 40 39  1  0
 40 28  1  0
  4 41  1  1
  6 42  1  6
  7 43  1  0
  8 44  1  1
  9 45  1  0
 10 46  1  1
 11 47  1  0
 12 48  1  6
 13 49  1  1
 14 50  1  0
 18 51  1  6
 19 52  1  0
 19 53  1  0
 20 54  1  0
 22 55  1  0
 23 56  1  6
 26 57  1  0
 27 58  1  0
 29 59  1  6
 32 60  1  0
 32 61  1  0
 37 62  1  0
 39 63  1  0
M  END
