
     RDKit          3D

 35 37  0  0  0  0  0  0  0  0999 V2000
   15.3909  115.7011   29.3280 C   0  0  0  0  0  0  0  0  0  0  0  0
   14.6230  115.4240   30.9698 S   0  0  0  0  0  0  0  0  0  0  0  0
   16.8587  116.1245   29.4786 C   0  0  1  0  0  0  0  0  0  0  0  0
   17.7143  115.3664   28.6401 O   0  0  0  0  0  0  0  0  0  0  0  0
   17.0941  117.6083   29.1389 C   0  0  1  0  0  0  0  0  0  0  0  0
   17.3046  118.3384   30.3208 O   0  0  0  0  0  0  0  0  0  0  0  0
   18.3522  117.5681   28.2776 C   0  0  1  0  0  0  0  0  0  0  0  0
   19.2749  118.5870   28.5866 O   0  0  0  0  0  0  0  0  0  0  0  0
   18.8713  116.1640   28.5589 C   0  0  2  0  0  0  0  0  0  0  0  0
   23.5786  114.1974   27.8723 N   0  0  0  0  0  0  0  0  0  0  0  0
   22.9472  114.5640   29.0307 C   0  0  0  0  0  0  0  0  0  0  0  0
   21.6770  115.0662   29.0011 N   0  0  0  0  0  0  0  0  0  0  0  0
   21.0592  115.1896   27.7988 C   0  0  0  0  0  0  0  0  0  0  0  0
   21.6601  114.8385   26.6317 C   0  0  0  0  0  0  0  0  0  0  0  0
   22.9693  114.3211   26.6554 C   0  0  0  0  0  0  0  0  0  0  0  0
   23.6640  113.9306   25.4727 N   0  0  0  0  0  0  0  0  0  0  0  0
   20.8191  115.0714   25.5984 N   0  0  0  0  0  0  0  0  0  0  0  0
   19.7010  115.5691   26.2065 C   0  0  0  0  0  0  0  0  0  0  0  0
   19.8235  115.6609   27.5577 N   0  0  0  0  0  0  0  0  0  0  0  0
   14.0791  117.1251   31.3187 C   0  0  0  0  0  0  0  0  0  0  0  0
   15.3602  114.7274   28.7948 H   0  0  0  0  0  0  0  0  0  0  0  0
   14.8080  116.4220   28.7165 H   0  0  0  0  0  0  0  0  0  0  0  0
   17.1629  115.9212   30.5336 H   0  0  0  0  0  0  0  0  0  0  0  0
   16.2506  118.0446   28.5532 H   0  0  0  0  0  0  0  0  0  0  0  0
   18.2035  118.7529   30.2434 H   0  0  0  0  0  0  0  0  0  0  0  0
   18.0549  117.6650   27.2118 H   0  0  0  0  0  0  0  0  0  0  0  0
   20.0107  118.1952   29.1254 H   0  0  0  0  0  0  0  0  0  0  0  0
   19.3831  116.1523   29.5533 H   0  0  0  0  0  0  0  0  0  0  0  0
   23.4583  114.4550   29.9773 H   0  0  0  0  0  0  0  0  0  0  0  0
   24.7034  113.8305   25.4727 H   0  0  0  0  0  0  0  0  0  0  0  0
   23.1378  113.7401   24.5912 H   0  0  0  0  0  0  0  0  0  0  0  0
   18.8132  115.8544   25.6588 H   0  0  0  0  0  0  0  0  0  0  0  0
   13.6221  117.5856   30.4189 H   0  0  0  0  0  0  0  0  0  0  0  0
   13.3175  117.0960   32.1244 H   0  0  0  0  0  0  0  0  0  0  0  0
   14.9283  117.7392   31.6703 H   0  0  0  0  0  0  0  0  0  0  0  0
  2  1  1  0
  3  1  1  0
  4  3  1  0
  5  3  1  0
  5  6  1  0
  7  5  1  0
  7  8  1  0
  9  7  1  0
  9  4  1  0
 11 10  2  0
 12 11  1  0
 13 12  2  0
 14 13  1  0
 15 10  1  0
 15 14  2  0
 16 15  1  0
 17 14  1  0
 18 17  2  0
 19 18  1  0
 19 13  1  0
  9 19  1  0
 20  2  1  0
  1 21  1  0
  1 22  1  0
  3 23  1  1
  5 24  1  6
  6 25  1  0
  7 26  1  6
  8 27  1  0
  9 28  1  1
 11 29  1  0
 16 30  1  0
 16 31  1  0
 18 32  1  0
 20 33  1  0
 20 34  1  0
 20 35  1  0
M  END
