
     RDKit          3D

 35 37  0  0  0  0  0  0  0  0999 V2000
   33.6082  130.1626   52.9667 C   0  0  0  0  0  0  0  0  0  0  0  0
   33.1934  130.9613   51.3671 S   0  0  0  0  0  0  0  0  0  0  0  0
   33.6217  128.6306   52.8268 C   0  0  1  0  0  0  0  0  0  0  0  0
   34.5014  128.0226   53.7586 O   0  0  0  0  0  0  0  0  0  0  0  0
   32.2291  127.9988   53.0223 C   0  0  1  0  0  0  0  0  0  0  0  0
   31.7109  127.5851   51.7841 O   0  0  0  0  0  0  0  0  0  0  0  0
   32.5142  126.8071   53.9201 C   0  0  1  0  0  0  0  0  0  0  0  0
   31.8537  125.6294   53.5204 O   0  0  0  0  0  0  0  0  0  0  0  0
   34.0316  126.6971   53.8331 C   0  0  2  0  0  0  0  0  0  0  0  0
   36.1439  122.2495   55.3837 N   0  0  0  0  0  0  0  0  0  0  0  0
   35.7269  122.6144   54.1314 C   0  0  0  0  0  0  0  0  0  0  0  0
   35.1925  123.8539   53.9096 N   0  0  0  0  0  0  0  0  0  0  0  0
   35.0896  124.7093   54.9606 C   0  0  0  0  0  0  0  0  0  0  0  0
   35.4939  124.3737   56.2111 C   0  0  0  0  0  0  0  0  0  0  0  0
   36.0422  123.1037   56.4450 C   0  0  0  0  0  0  0  0  0  0  0  0
   36.4861  122.6932   57.7349 N   0  0  0  0  0  0  0  0  0  0  0  0
   35.2881  125.4060   57.0572 N   0  0  0  0  0  0  0  0  0  0  0  0
   34.7495  126.3666   56.2562 C   0  0  0  0  0  0  0  0  0  0  0  0
   34.6112  125.9664   54.9637 N   0  0  0  0  0  0  0  0  0  0  0  0
   33.0092  132.6851   51.9223 C   0  0  0  0  0  0  0  0  0  0  0  0
   34.6325  130.5004   53.2314 H   0  0  0  0  0  0  0  0  0  0  0  0
   32.9363  130.5085   53.7804 H   0  0  0  0  0  0  0  0  0  0  0  0
   34.0062  128.3843   51.8082 H   0  0  0  0  0  0  0  0  0  0  0  0
   31.5195  128.6952   53.5295 H   0  0  0  0  0  0  0  0  0  0  0  0
   30.7932  127.9589   51.7190 H   0  0  0  0  0  0  0  0  0  0  0  0
   32.1872  127.0662   54.9479 H   0  0  0  0  0  0  0  0  0  0  0  0
   31.4370  125.2100   54.3178 H   0  0  0  0  0  0  0  0  0  0  0  0
   34.3193  126.1682   52.8917 H   0  0  0  0  0  0  0  0  0  0  0  0
   35.8198  121.9163   53.3110 H   0  0  0  0  0  0  0  0  0  0  0  0
   36.4146  123.3354   58.5552 H   0  0  0  0  0  0  0  0  0  0  0  0
   36.8898  121.7403   57.8737 H   0  0  0  0  0  0  0  0  0  0  0  0
   34.4807  127.3474   56.6232 H   0  0  0  0  0  0  0  0  0  0  0  0
   33.2448  132.7742   53.0028 H   0  0  0  0  0  0  0  0  0  0  0  0
   33.7145  133.3224   51.3507 H   0  0  0  0  0  0  0  0  0  0  0  0
   31.9811  133.0432   51.7285 H   0  0  0  0  0  0  0  0  0  0  0  0
  2  1  1  0
  3  1  1  0
  4  3  1  0
  5  3  1  0
  5  6  1  0
  7  5  1  0
  7  8  1  0
  9  7  1  0
  9  4  1  0
 11 10  2  0
 12 11  1  0
 13 12  2  0
 14 13  1  0
 15 14  2  0
 15 10  1  0
 16 15  1  0
 17 14  1  0
 18 17  2  0
 19 13  1  0
  9 19  1  0
 19 18  1  0
 20  2  1  0
  1 21  1  0
  1 22  1  0
  3 23  1  6
  5 24  1  1
  6 25  1  0
  7 26  1  1
  8 27  1  0
  9 28  1  6
 11 29  1  0
 16 30  1  0
 16 31  1  0
 18 32  1  0
 20 33  1  0
 20 34  1  0
 20 35  1  0
M  END
