
     RDKit          3D

 14 14  0  0  0  0  0  0  0  0999 V2000
  -15.3964   -2.2522   -4.7056 C   0  0  0  0  0  0  0  0  0  0  0  0
  -15.7377   -2.3742   -7.0982 N   0  0  0  0  0  0  0  0  0  0  0  0
  -15.0478   -1.3183   -2.4018 S   0  0  0  0  0  0  0  0  0  0  0  0
  -16.0250   -2.8234   -5.9144 C   0  0  0  0  0  0  0  0  0  0  0  0
  -16.9640   -3.8858   -5.7795 N   0  0  0  0  0  0  0  0  0  0  0  0
  -14.0290   -1.9571   -4.5995 C   0  0  0  0  0  0  0  0  0  0  0  0
  -16.1120   -1.9336   -3.5507 C   0  0  0  0  0  0  0  0  0  0  0  0
  -13.6754   -1.4170   -3.3699 C   0  0  0  0  0  0  0  0  0  0  0  0
  -15.0484   -1.6072   -7.2618 H   0  0  0  0  0  0  0  0  0  0  0  0
  -17.8104   -3.9192   -6.3904 H   0  0  0  0  0  0  0  0  0  0  0  0
  -16.8580   -4.6178   -5.0430 H   0  0  0  0  0  0  0  0  0  0  0  0
  -13.3119   -2.1106   -5.3949 H   0  0  0  0  0  0  0  0  0  0  0  0
  -17.1714   -2.0859   -3.3944 H   0  0  0  0  0  0  0  0  0  0  0  0
  -12.6770   -1.1185   -3.0803 H   0  0  0  0  0  0  0  0  0  0  0  0
  4  2  2  3
  4  1  1  0
  5  4  1  0
  6  1  1  0
  7  1  2  0
  7  3  1  0
  8  6  2  0
  8  3  1  0
  2  9  1  0
  5 10  1  0
  5 11  1  0
  6 12  1  0
  7 13  1  0
  8 14  1  0
M  END
