
     RDKit          3D

 16 16  0  0  0  0  0  0  0  0999 V2000
   -0.9260   -1.8096   13.5458 N   0  0  0  0  0  0  0  0  0  0  0  0
    0.4022   -1.7151   12.9685 C   0  0  2  0  0  0  0  0  0  0  0  0
    0.8439   -0.2770   12.9614 C   0  0  0  0  0  0  0  0  0  0  0  0
   -0.0107    0.6455   12.9412 O   0  0  0  0  0  0  0  0  0  0  0  0
    0.2264   -2.2357   11.5254 C   0  0  0  0  0  0  0  0  0  0  0  0
   -1.2233   -1.8958   11.1576 C   0  0  0  0  0  0  0  0  0  0  0  0
   -1.8616   -1.7782   12.4924 C   0  0  0  0  0  0  0  0  0  0  0  0
   -3.0918   -1.6009   12.6845 O   0  0  0  0  0  0  0  0  0  0  0  0
    2.1938    0.0378   12.9856 O   0  0  0  0  0  0  0  0  0  0  0  0
   -1.1572   -1.6268   14.5481 H   0  0  0  0  0  0  0  0  0  0  0  0
    1.1225   -2.3389   13.5400 H   0  0  0  0  0  0  0  0  0  0  0  0
    0.9452   -1.7930   10.8020 H   0  0  0  0  0  0  0  0  0  0  0  0
    0.3569   -3.3406   11.5200 H   0  0  0  0  0  0  0  0  0  0  0  0
   -1.2778   -0.9215   10.6261 H   0  0  0  0  0  0  0  0  0  0  0  0
   -1.6915   -2.7038   10.5559 H   0  0  0  0  0  0  0  0  0  0  0  0
    2.7907   -0.1697   12.1939 H   0  0  0  0  0  0  0  0  0  0  0  0
  2  1  1  0
  2  3  1  0
  4  3  2  0
  5  2  1  0
  6  5  1  0
  7  6  1  0
  7  1  1  0
  8  7  2  0
  9  3  1  0
  1 10  1  0
  2 11  1  1
  5 12  1  0
  5 13  1  0
  6 14  1  0
  6 15  1  0
  9 16  1  0
M  END
