
     RDKit          3D

 30 30  0  0  0  0  0  0  0  0999 V2000
   35.7500   18.8727  -15.7016 C   0  0  0  0  0  0  0  0  0  0  0  0
   34.9445   17.7720  -16.3993 C   0  0  2  0  0  0  0  0  0  0  0  0
   33.7430   18.3223  -17.0389 N   0  0  0  0  0  0  0  0  0  0  0  0
   34.6067   16.6109  -15.4329 C   0  0  1  0  0  0  0  0  0  0  0  0
   34.1301   15.4976  -16.1549 O   0  0  0  0  0  0  0  0  0  0  0  0
   35.8249   16.1783  -14.5725 C   0  0  2  0  0  0  0  0  0  0  0  0
   35.3884   15.3908  -13.4881 O   0  0  0  0  0  0  0  0  0  0  0  0
   36.6840   17.3696  -14.0672 C   0  0  2  0  0  0  0  0  0  0  0  0
   36.9845   18.3036  -15.1652 N   0  0  0  0  0  0  0  0  0  0  0  0
   38.0053   16.8597  -13.4684 C   0  0  0  0  0  0  0  0  0  0  0  0
   38.9177   17.9191  -13.3388 O   0  0  0  0  0  0  0  0  0  0  0  0
   33.7130   19.4929  -17.8639 C   0  0  0  0  0  0  0  0  0  0  0  0
   34.7748   20.0785  -18.2042 O   0  0  0  0  0  0  0  0  0  0  0  0
   32.3962   20.0275  -18.3169 C   0  0  0  0  0  0  0  0  0  0  0  0
   35.1812   19.3658  -14.8862 H   0  0  0  0  0  0  0  0  0  0  0  0
   36.0083   19.6540  -16.4500 H   0  0  0  0  0  0  0  0  0  0  0  0
   35.6008   17.3645  -17.2022 H   0  0  0  0  0  0  0  0  0  0  0  0
   32.8556   17.7797  -16.9335 H   0  0  0  0  0  0  0  0  0  0  0  0
   33.7993   16.9525  -14.7504 H   0  0  0  0  0  0  0  0  0  0  0  0
   33.6644   14.8918  -15.5206 H   0  0  0  0  0  0  0  0  0  0  0  0
   36.4773   15.5426  -15.2110 H   0  0  0  0  0  0  0  0  0  0  0  0
   34.8353   15.9670  -12.8981 H   0  0  0  0  0  0  0  0  0  0  0  0
   36.1297   17.9058  -13.2617 H   0  0  0  0  0  0  0  0  0  0  0  0
   37.5442   19.0989  -14.7754 H   0  0  0  0  0  0  0  0  0  0  0  0
   37.8043   16.4200  -12.4657 H   0  0  0  0  0  0  0  0  0  0  0  0
   38.4365   16.0604  -14.1119 H   0  0  0  0  0  0  0  0  0  0  0  0
   39.7430   17.5253  -12.9535 H   0  0  0  0  0  0  0  0  0  0  0  0
   31.5831   19.3604  -17.9621 H   0  0  0  0  0  0  0  0  0  0  0  0
   32.2276   21.0481  -17.9122 H   0  0  0  0  0  0  0  0  0  0  0  0
   32.3746   20.0731  -19.4257 H   0  0  0  0  0  0  0  0  0  0  0  0
  2  1  1  0
  2  3  1  0
  4  2  1  0
  4  5  1  0
  6  4  1  0
  6  7  1  0
  8  6  1  0
  9  1  1  0
  9  8  1  0
  8 10  1  0
 11 10  1  0
 12  3  1  0
 13 12  2  0
 14 12  1  0
  1 15  1  0
  1 16  1  0
  2 17  1  6
  3 18  1  0
  4 19  1  1
  5 20  1  0
  6 21  1  6
  7 22  1  0
  8 23  1  1
  9 24  1  0
 10 25  1  0
 10 26  1  0
 11 27  1  0
 14 28  1  0
 14 29  1  0
 14 30  1  0
M  END
