
     RDKit          3D

 64 67  0  0  0  0  0  0  0  0999 V2000
   17.0751    0.7963    7.9701 P   0  0  2  0  0  0  0  0  0  0  0  0
   19.8517    0.6225    7.8353 P   0  0  1  0  0  0  0  0  0  0  0  0
   14.6296    1.6089   13.2316 P   0  0  0  0  0  0  0  0  0  0  0  0
   19.0685   -0.9711    9.5510 C   0  0  0  0  0  0  0  0  0  0  0  0
   20.2640   -0.3807    9.1099 O   0  0  0  0  0  0  0  0  0  0  0  0
   19.3081   -2.3384   10.1132 C   0  0  1  0  0  0  0  0  0  0  0  0
   20.4073   -2.9833    9.4835 O   0  0  0  0  0  0  0  0  0  0  0  0
   19.5976   -2.1712   11.5630 C   0  0  1  0  0  0  0  0  0  0  0  0
   19.2558   -3.3670   12.2108 O   0  0  0  0  0  0  0  0  0  0  0  0
   21.0904   -1.9235   11.5080 C   0  0  1  0  0  0  0  0  0  0  0  0
   21.7149   -2.3111   12.6958 O   0  0  0  0  0  0  0  0  0  0  0  0
   21.5443   -2.7553   10.2964 C   0  0  2  0  0  0  0  0  0  0  0  0
   22.5375   -2.0854    9.5481 O   0  0  0  0  0  0  0  0  0  0  0  0
   16.3117    3.1763    8.4300 C   0  0  0  0  0  0  0  0  0  0  0  0
   15.9833    1.8310    8.6842 O   0  0  0  0  0  0  0  0  0  0  0  0
   15.2846    4.0197    9.1832 C   0  0  1  0  0  0  0  0  0  0  0  0
   14.0070    3.6124    8.7376 O   0  0  0  0  0  0  0  0  0  0  0  0
   15.3550    3.7854   10.7141 C   0  0  1  0  0  0  0  0  0  0  0  0
   14.8871    4.9349   11.3898 O   0  0  0  0  0  0  0  0  0  0  0  0
   14.3631    2.6625   10.8916 C   0  0  1  0  0  0  0  0  0  0  0  0
   13.7693    2.6205   12.1666 O   0  0  0  0  0  0  0  0  0  0  0  0
   13.3387    3.1502    9.8850 C   0  0  2  0  0  0  0  0  0  0  0  0
    8.3701    2.2328    9.3813 N   0  0  0  0  0  0  0  0  0  0  0  0
   16.7854    0.7175    6.4891 O   0  0  0  0  0  0  0  0  0  0  0  0
    9.0012    3.4270    9.6276 C   0  0  0  0  0  0  0  0  0  0  0  0
   16.8773   -0.6903    8.7300 O   0  0  0  0  0  0  0  0  0  0  0  0
   10.3619    3.4710    9.7077 N   0  0  0  0  0  0  0  0  0  0  0  0
   18.5470    1.5220    8.3290 O   0  0  0  0  0  0  0  0  0  0  0  0
   11.0486    2.3102    9.5342 C   0  0  0  0  0  0  0  0  0  0  0  0
   10.4569    1.1303    9.2883 C   0  0  0  0  0  0  0  0  0  0  0  0
    9.0805    1.0702    9.2092 C   0  0  0  0  0  0  0  0  0  0  0  0
    8.4229   -0.1625    8.9532 N   0  0  0  0  0  0  0  0  0  0  0  0
   11.3726    0.1496    9.1388 N   0  0  0  0  0  0  0  0  0  0  0  0
   12.5459    0.8090    9.3141 C   0  0  0  0  0  0  0  0  0  0  0  0
   12.3666    2.1305    9.5633 N   0  0  0  0  0  0  0  0  0  0  0  0
   20.9767    1.6031    7.6198 O   0  0  0  0  0  0  0  0  0  0  0  0
   19.5709   -0.2724    6.4356 O   0  0  0  0  0  0  0  0  0  0  0  0
   14.8224    0.2187   12.6651 O   0  0  0  0  0  0  0  0  0  0  0  0
   16.1171    2.3085   13.5850 O   0  0  0  0  0  0  0  0  0  0  0  0
   13.6971    1.5012   14.6283 O   0  0  0  0  0  0  0  0  0  0  0  0
   18.3979   -1.2937    8.7286 H   0  0  0  0  0  0  0  0  0  0  0  0
   18.4948   -0.2962   10.2214 H   0  0  0  0  0  0  0  0  0  0  0  0
   18.3971   -2.9748    9.9933 H   0  0  0  0  0  0  0  0  0  0  0  0
   19.0840   -1.3161   12.0664 H   0  0  0  0  0  0  0  0  0  0  0  0
   18.2868   -3.3138   12.4225 H   0  0  0  0  0  0  0  0  0  0  0  0
   21.2941   -0.8419   11.3251 H   0  0  0  0  0  0  0  0  0  0  0  0
   21.4634   -1.6389   13.3821 H   0  0  0  0  0  0  0  0  0  0  0  0
   21.9347   -3.7391   10.6442 H   0  0  0  0  0  0  0  0  0  0  0  0
   22.5774   -2.5424    8.6681 H   0  0  0  0  0  0  0  0  0  0  0  0
   17.3161    3.4548    8.8152 H   0  0  0  0  0  0  0  0  0  0  0  0
   16.2450    3.3994    7.3412 H   0  0  0  0  0  0  0  0  0  0  0  0
   15.4439    5.0938    8.9424 H   0  0  0  0  0  0  0  0  0  0  0  0
   16.3774    3.5014   11.0571 H   0  0  0  0  0  0  0  0  0  0  0  0
   15.5148    5.0984   12.1411 H   0  0  0  0  0  0  0  0  0  0  0  0
   14.7787    1.6771   10.6068 H   0  0  0  0  0  0  0  0  0  0  0  0
   12.7950    4.0220   10.3251 H   0  0  0  0  0  0  0  0  0  0  0  0
    8.4209    4.3297    9.7598 H   0  0  0  0  0  0  0  0  0  0  0  0
   17.7346   -1.1642    8.5827 H   0  0  0  0  0  0  0  0  0  0  0  0
    8.9614   -1.0477    8.8217 H   0  0  0  0  0  0  0  0  0  0  0  0
    7.3811   -0.1962    8.8939 H   0  0  0  0  0  0  0  0  0  0  0  0
   13.5104    0.3226    9.2588 H   0  0  0  0  0  0  0  0  0  0  0  0
   18.7537   -0.8116    6.5733 H   0  0  0  0  0  0  0  0  0  0  0  0
   16.1765    2.2902   14.5734 H   0  0  0  0  0  0  0  0  0  0  0  0
   12.8217    1.1530   14.3223 H   0  0  0  0  0  0  0  0  0  0  0  0
  5  4  1  0
  2  5  1  1
  6  4  1  0
  7  6  1  0
  8  6  1  0
  8  9  1  0
 10  8  1  0
 10 11  1  0
 12 10  1  0
 12  7  1  0
 12 13  1  0
 15 14  1  0
  1 15  1  1
 16 14  1  0
 17 16  1  0
 18 16  1  0
 18 19  1  0
 20 18  1  0
 20 21  1  0
 21  3  1  0
 22 20  1  0
 22 17  1  0
 24  1  2  0
 25 23  2  0
 26  1  1  0
 27 25  1  0
 28  2  1  0
 28  1  1  0
 29 27  2  0
 30 29  1  0
 31 30  2  0
 31 23  1  0
 32 31  1  0
 33 30  1  0
 34 33  2  0
 35 34  1  0
 35 29  1  0
 22 35  1  0
 36  2  2  0
 37  2  1  0
 38  3  2  0
 39  3  1  0
 40  3  1  0
  4 41  1  0
  4 42  1  0
  6 43  1  1
  8 44  1  1
  9 45  1  0
 10 46  1  6
 11 47  1  0
 12 48  1  1
 13 49  1  0
 14 50  1  0
 14 51  1  0
 16 52  1  1
 18 53  1  1
 19 54  1  0
 20 55  1  6
 22 56  1  1
 25 57  1  0
 26 58  1  0
 32 59  1  0
 32 60  1  0
 34 61  1  0
 37 62  1  0
 39 63  1  0
 40 64  1  0
M  END
