
     RDKit          3D

 33 34  0  0  0  0  0  0  0  0999 V2000
   49.8092   27.4911   15.7640 C   0  0  0  0  0  0  0  0  0  0  0  0
   50.8954   28.0169   16.4565 C   0  0  0  0  0  0  0  0  0  0  0  0
   50.2426   26.2404   15.2730 C   0  0  0  0  0  0  0  0  0  0  0  0
   51.5379   26.0806   15.7289 C   0  0  0  0  0  0  0  0  0  0  0  0
   49.6396   25.2393   14.4738 C   0  0  0  0  0  0  0  0  0  0  0  0
   51.9342   27.1501   16.4404 N   0  0  0  0  0  0  0  0  0  0  0  0
   52.2942   24.9358   15.4493 C   0  0  0  0  0  0  0  0  0  0  0  0
   50.3872   24.0696   14.1858 C   0  0  0  0  0  0  0  0  0  0  0  0
   51.7048   23.9202   14.6741 C   0  0  0  0  0  0  0  0  0  0  0  0
   48.7911   28.9457   11.5466 P   0  0  0  0  0  0  0  0  0  0  0  0
   47.2920   29.4201   13.5710 C   0  0  0  0  0  0  0  0  0  0  0  0
   48.5561   28.6845   14.0018 C   0  0  1  0  0  0  0  0  0  0  0  0
   49.6669   29.5181   13.7724 O   0  0  0  0  0  0  0  0  0  0  0  0
   48.5401   28.2627   15.4798 C   0  0  1  0  0  0  0  0  0  0  0  0
   47.3976   27.5157   15.8277 O   0  0  0  0  0  0  0  0  0  0  0  0
   49.1000   27.4054   12.1569 O   0  0  0  0  0  0  0  0  0  0  0  0
   50.0443   29.9826   11.9691 O   0  0  0  0  0  0  0  0  0  0  0  0
   48.6859   28.8773   10.0419 O   0  0  0  0  0  0  0  0  0  0  0  0
   47.3484   29.5812   12.1684 O   0  0  0  0  0  0  0  0  0  0  0  0
   50.9308   28.9886   16.9319 H   0  0  0  0  0  0  0  0  0  0  0  0
   48.6375   25.3486   14.0870 H   0  0  0  0  0  0  0  0  0  0  0  0
   52.8682   27.2951   16.8844 H   0  0  0  0  0  0  0  0  0  0  0  0
   53.3060   24.8327   15.8194 H   0  0  0  0  0  0  0  0  0  0  0  0
   49.9464   23.2866   13.5828 H   0  0  0  0  0  0  0  0  0  0  0  0
   52.2659   23.0237   14.4447 H   0  0  0  0  0  0  0  0  0  0  0  0
   47.1677   30.3618   14.1555 H   0  0  0  0  0  0  0  0  0  0  0  0
   46.4055   28.7911   13.7977 H   0  0  0  0  0  0  0  0  0  0  0  0
   48.6264   27.7675   13.3672 H   0  0  0  0  0  0  0  0  0  0  0  0
   49.7248   29.6736   12.7933 H   0  0  0  0  0  0  0  0  0  0  0  0
   48.5341   29.1840   16.1034 H   0  0  0  0  0  0  0  0  0  0  0  0
   47.6948   26.6921   16.2907 H   0  0  0  0  0  0  0  0  0  0  0  0
   49.7028   27.5476   12.9295 H   0  0  0  0  0  0  0  0  0  0  0  0
   49.5962   30.7852   12.3379 H   0  0  0  0  0  0  0  0  0  0  0  0
  2  1  2  0
  3  1  1  0
  4  3  2  0
  5  3  1  0
  6  4  1  0
  6  2  1  0
  7  4  1  0
  8  5  2  0
  9  8  1  0
  9  7  2  0
 12 11  1  0
 12 13  1  0
 14 12  1  0
 14  1  1  0
 14 15  1  0
 16 10  1  0
 17 10  1  0
 18 10  2  0
 19 10  1  0
 19 11  1  0
  2 20  1  0
  5 21  1  0
  6 22  1  0
  7 23  1  0
  8 24  1  0
  9 25  1  0
 11 26  1  0
 11 27  1  0
 12 28  1  6
 13 29  1  0
 14 30  1  1
 15 31  1  0
 16 32  1  0
 17 33  1  0
M  END
