
     RDKit          3D

 27 27  0  0  0  0  0  0  0  0999 V2000
   53.3878    9.3041   28.4437 P   0  0  0  0  0  0  0  0  0  0  0  0
   56.7232   12.3320   27.2240 C   0  0  0  0  0  0  0  0  0  0  0  0
   55.0141    9.7266   28.2200 O   0  0  0  0  0  0  0  0  0  0  0  0
   55.5280   12.0018   27.7666 C   0  0  0  0  0  0  0  0  0  0  0  0
   56.5486    9.6153   30.4493 O   0  0  0  0  0  0  0  0  0  0  0  0
   55.3653   10.9461   28.8407 C   0  0  2  0  0  0  0  0  0  0  0  0
   59.0266   10.1609   29.2390 O   0  0  0  0  0  0  0  0  0  0  0  0
   56.6922   10.7214   29.5946 C   0  0  2  0  0  0  0  0  0  0  0  0
   57.5776   14.3250   26.2466 O   0  0  0  0  0  0  0  0  0  0  0  0
   57.8295   10.4822   28.5754 C   0  0  1  0  0  0  0  0  0  0  0  0
   55.9835   13.2173   25.0399 O   0  0  0  0  0  0  0  0  0  0  0  0
   58.0233   11.7615   27.7472 C   0  0  0  0  0  0  0  0  0  0  0  0
   52.5051   10.0597   27.4841 O   0  0  0  0  0  0  0  0  0  0  0  0
   56.7954   13.3424   26.1528 C   0  0  0  0  0  0  0  0  0  0  0  0
   52.8991    9.5859   30.0256 O   0  0  0  0  0  0  0  0  0  0  0  0
   53.2681    7.6617   28.1247 O   0  0  0  0  0  0  0  0  0  0  0  0
   54.6202   12.4494   27.3797 H   0  0  0  0  0  0  0  0  0  0  0  0
   57.2492    9.6971   31.1478 H   0  0  0  0  0  0  0  0  0  0  0  0
   54.6103   11.3034   29.5793 H   0  0  0  0  0  0  0  0  0  0  0  0
   59.6460    9.7984   28.5528 H   0  0  0  0  0  0  0  0  0  0  0  0
   56.9157   11.6340   30.1988 H   0  0  0  0  0  0  0  0  0  0  0  0
   57.5482    9.6414   27.8981 H   0  0  0  0  0  0  0  0  0  0  0  0
   55.8325   14.0002   24.4150 H   0  0  0  0  0  0  0  0  0  0  0  0
   58.5160   12.5358   28.3754 H   0  0  0  0  0  0  0  0  0  0  0  0
   58.6981   11.5348   26.8931 H   0  0  0  0  0  0  0  0  0  0  0  0
   52.2113    8.8956   30.2028 H   0  0  0  0  0  0  0  0  0  0  0  0
   54.1757    7.3034   28.2947 H   0  0  0  0  0  0  0  0  0  0  0  0
  3  1  1  0
  4  2  2  0
  6  3  1  0
  6  4  1  0
  8  6  1  0
  8  5  1  0
 10  8  1  0
 10  7  1  0
 12 10  1  0
 12  2  1  0
 13  1  2  0
 14  9  2  0
 14 11  1  0
 14  2  1  0
 15  1  1  0
 16  1  1  0
  4 17  1  0
  5 18  1  0
  6 19  1  1
  7 20  1  0
  8 21  1  1
 10 22  1  6
 11 23  1  0
 12 24  1  0
 12 25  1  0
 15 26  1  0
 16 27  1  0
M  END
