
     RDKit          3D

 25 25  0  0  0  0  0  0  0  0999 V2000
  140.1188   90.5606   74.0089 C   0  0  0  0  0  0  0  0  0  0  0  0
  140.4982   90.0835   75.1542 N   0  0  0  0  0  0  0  0  0  0  0  0
  140.8074   91.8058   73.4825 C   0  0  2  0  0  0  0  0  0  0  0  0
  140.6396   92.8515   74.4005 O   0  0  0  0  0  0  0  0  0  0  0  0
  140.2599   92.2573   72.1174 C   0  0  1  0  0  0  0  0  0  0  0  0
  141.1930   93.1112   71.5026 O   0  0  0  0  0  0  0  0  0  0  0  0
  139.9372   91.0334   71.2280 C   0  0  1  0  0  0  0  0  0  0  0  0
  141.0795   90.2225   71.0526 O   0  0  0  0  0  0  0  0  0  0  0  0
  138.7659   90.2603   71.8834 C   0  0  2  0  0  0  0  0  0  0  0  0
  139.0955   89.8935   73.2541 N   0  0  0  0  0  0  0  0  0  0  0  0
  138.3347   89.0017   71.1183 C   0  0  0  0  0  0  0  0  0  0  0  0
  139.2841   87.9743   71.2543 O   0  0  0  0  0  0  0  0  0  0  0  0
  140.0981   88.8515   75.6340 O   0  0  0  0  0  0  0  0  0  0  0  0
  141.8926   91.5723   73.3637 H   0  0  0  0  0  0  0  0  0  0  0  0
  141.3204   92.7268   75.1127 H   0  0  0  0  0  0  0  0  0  0  0  0
  139.3156   92.8281   72.2903 H   0  0  0  0  0  0  0  0  0  0  0  0
  140.8871   94.0400   71.6739 H   0  0  0  0  0  0  0  0  0  0  0  0
  139.6074   91.3942   70.2295 H   0  0  0  0  0  0  0  0  0  0  0  0
  140.8123   89.2965   70.8266 H   0  0  0  0  0  0  0  0  0  0  0  0
  137.8854   90.9413   71.9098 H   0  0  0  0  0  0  0  0  0  0  0  0
  138.3785   89.3335   73.7675 H   0  0  0  0  0  0  0  0  0  0  0  0
  137.3388   88.6622   71.4886 H   0  0  0  0  0  0  0  0  0  0  0  0
  138.2138   89.2404   70.0403 H   0  0  0  0  0  0  0  0  0  0  0  0
  139.1443   87.3442   70.4999 H   0  0  0  0  0  0  0  0  0  0  0  0
  139.2618   88.3788   75.3153 H   0  0  0  0  0  0  0  0  0  0  0  0
  2  1  2  3
  3  1  1  0
  3  4  1  0
  5  3  1  0
  5  6  1  0
  7  5  1  0
  7  8  1  0
  9  7  1  0
 10  9  1  0
 10  1  1  0
  9 11  1  0
 12 11  1  0
 13  2  1  0
  3 14  1  6
  4 15  1  0
  5 16  1  1
  6 17  1  0
  7 18  1  6
  8 19  1  0
  9 20  1  1
 10 21  1  0
 11 22  1  0
 11 23  1  0
 12 24  1  0
 13 25  1  0
M  END
