
     RDKit          3D

 25 25  0  0  0  0  0  0  0  0999 V2000
  119.8766   38.7214   65.2963 C   0  0  0  0  0  0  0  0  0  0  0  0
  119.1782   38.9323   66.3656 N   0  0  0  0  0  0  0  0  0  0  0  0
  119.4099   37.6506   64.3281 C   0  0  2  0  0  0  0  0  0  0  0  0
  119.2618   36.4297   65.0079 O   0  0  0  0  0  0  0  0  0  0  0  0
  120.3916   37.4555   63.1566 C   0  0  1  0  0  0  0  0  0  0  0  0
  119.7441   36.7691   62.1166 O   0  0  0  0  0  0  0  0  0  0  0  0
  120.9490   38.8065   62.6519 C   0  0  1  0  0  0  0  0  0  0  0  0
  119.8994   39.6458   62.2219 O   0  0  0  0  0  0  0  0  0  0  0  0
  121.7928   39.4358   63.7872 C   0  0  2  0  0  0  0  0  0  0  0  0
  120.9786   39.5946   64.9880 N   0  0  0  0  0  0  0  0  0  0  0  0
  122.4728   40.7700   63.4142 C   0  0  0  0  0  0  0  0  0  0  0  0
  122.6267   41.5982   64.5391 O   0  0  0  0  0  0  0  0  0  0  0  0
  119.4261   40.0211   67.1693 O   0  0  0  0  0  0  0  0  0  0  0  0
  118.4274   37.9739   63.9087 H   0  0  0  0  0  0  0  0  0  0  0  0
  120.1416   35.9701   64.9764 H   0  0  0  0  0  0  0  0  0  0  0  0
  121.2448   36.8330   63.5202 H   0  0  0  0  0  0  0  0  0  0  0  0
  119.6108   37.4217   61.3801 H   0  0  0  0  0  0  0  0  0  0  0  0
  121.6169   38.6118   61.7844 H   0  0  0  0  0  0  0  0  0  0  0  0
  119.1337   39.5688   62.8456 H   0  0  0  0  0  0  0  0  0  0  0  0
  122.6134   38.7219   64.0251 H   0  0  0  0  0  0  0  0  0  0  0  0
  121.3599   40.2059   65.7453 H   0  0  0  0  0  0  0  0  0  0  0  0
  123.4635   40.5620   62.9450 H   0  0  0  0  0  0  0  0  0  0  0  0
  121.8650   41.3047   62.6538 H   0  0  0  0  0  0  0  0  0  0  0  0
  123.5444   41.4538   64.8890 H   0  0  0  0  0  0  0  0  0  0  0  0
  118.7785   40.7987   67.1819 H   0  0  0  0  0  0  0  0  0  0  0  0
  2  1  2  3
  3  1  1  0
  3  4  1  0
  5  3  1  0
  5  6  1  0
  7  5  1  0
  7  8  1  0
  9  7  1  0
 10  1  1  0
 10  9  1  0
  9 11  1  0
 12 11  1  0
 13  2  1  0
  3 14  1  6
  4 15  1  0
  5 16  1  1
  6 17  1  0
  7 18  1  6
  8 19  1  0
  9 20  1  1
 10 21  1  0
 11 22  1  0
 11 23  1  0
 12 24  1  0
 13 25  1  0
M  END
