
     RDKit          3D

 27 28  0  0  0  0  0  0  0  0999 V2000
   16.5772  -12.4497  -22.0567 O   0  0  0  0  0  0  0  0  0  0  0  0
   18.8269  -13.0805  -21.3657 C   0  0  2  0  0  0  0  0  0  0  0  0
   17.4162  -13.3156  -21.8368 C   0  0  0  0  0  0  0  0  0  0  0  0
   17.2278  -14.7892  -22.0563 C   0  0  0  0  0  0  0  0  0  0  0  0
   18.6432  -15.2927  -21.6662 C   0  0  1  0  0  0  0  0  0  0  0  0
   19.5830  -14.8609  -22.8207 C   0  0  0  0  0  0  0  0  0  0  0  0
   19.6942  -13.3279  -22.6213 C   0  0  0  0  0  0  0  0  0  0  0  0
   19.0560  -14.3449  -20.5177 C   0  0  0  0  0  0  0  0  0  0  0  0
   18.1352  -14.4522  -19.2652 C   0  0  0  0  0  0  0  0  0  0  0  0
   20.5184  -14.5519  -20.0305 C   0  0  0  0  0  0  0  0  0  0  0  0
   19.0639  -11.7356  -20.6653 C   0  0  0  0  0  0  0  0  0  0  0  0
   16.9625  -15.0136  -23.1121 H   0  0  0  0  0  0  0  0  0  0  0  0
   16.4448  -15.2010  -21.3853 H   0  0  0  0  0  0  0  0  0  0  0  0
   18.6880  -16.3768  -21.4266 H   0  0  0  0  0  0  0  0  0  0  0  0
   19.1651  -15.1110  -23.8205 H   0  0  0  0  0  0  0  0  0  0  0  0
   20.5739  -15.3557  -22.7369 H   0  0  0  0  0  0  0  0  0  0  0  0
   19.3064  -12.7767  -23.5077 H   0  0  0  0  0  0  0  0  0  0  0  0
   20.7494  -13.0185  -22.4612 H   0  0  0  0  0  0  0  0  0  0  0  0
   17.3931  -15.2739  -19.3097 H   0  0  0  0  0  0  0  0  0  0  0  0
   18.7557  -14.6013  -18.3560 H   0  0  0  0  0  0  0  0  0  0  0  0
   17.5528  -13.5153  -19.1341 H   0  0  0  0  0  0  0  0  0  0  0  0
   21.2194  -14.5021  -20.8905 H   0  0  0  0  0  0  0  0  0  0  0  0
   20.7112  -15.5138  -19.5214 H   0  0  0  0  0  0  0  0  0  0  0  0
   20.7906  -13.7429  -19.3194 H   0  0  0  0  0  0  0  0  0  0  0  0
   19.4093  -10.9750  -21.3962 H   0  0  0  0  0  0  0  0  0  0  0  0
   18.1185  -11.3772  -20.2059 H   0  0  0  0  0  0  0  0  0  0  0  0
   19.8281  -11.8414  -19.8669 H   0  0  0  0  0  0  0  0  0  0  0  0
  3  2  1  0
  3  1  2  0
  4  3  1  0
  5  4  1  0
  6  5  1  0
  7  6  1  0
  7  2  1  0
  8  5  1  0
  8  2  1  0
  8  9  1  0
 10  8  1  0
  2 11  1  1
  4 12  1  0
  4 13  1  0
  5 14  1  1
  6 15  1  0
  6 16  1  0
  7 17  1  0
  7 18  1  0
  9 19  1  0
  9 20  1  0
  9 21  1  0
 10 22  1  0
 10 23  1  0
 10 24  1  0
 11 25  1  0
 11 26  1  0
 11 27  1  0
M  END
