
     RDKit          3D

 27 28  0  0  0  0  0  0  0  0999 V2000
   17.6023  -12.3654  -22.1404 O   0  0  0  0  0  0  0  0  0  0  0  0
   19.8521  -12.9962  -21.4494 C   0  0  2  0  0  0  0  0  0  0  0  0
   18.4413  -13.2313  -21.9205 C   0  0  0  0  0  0  0  0  0  0  0  0
   18.2529  -14.7049  -22.1400 C   0  0  0  0  0  0  0  0  0  0  0  0
   19.6683  -15.2084  -21.7499 C   0  0  1  0  0  0  0  0  0  0  0  0
   20.6081  -14.7767  -22.9044 C   0  0  0  0  0  0  0  0  0  0  0  0
   20.7193  -13.2436  -22.7050 C   0  0  0  0  0  0  0  0  0  0  0  0
   20.0811  -14.2606  -20.6014 C   0  0  0  0  0  0  0  0  0  0  0  0
   19.1603  -14.3679  -19.3489 C   0  0  0  0  0  0  0  0  0  0  0  0
   21.5435  -14.4676  -20.1141 C   0  0  0  0  0  0  0  0  0  0  0  0
   20.0890  -11.6513  -20.7490 C   0  0  0  0  0  0  0  0  0  0  0  0
   17.9876  -14.9294  -23.1958 H   0  0  0  0  0  0  0  0  0  0  0  0
   17.4699  -15.1168  -21.4690 H   0  0  0  0  0  0  0  0  0  0  0  0
   19.7131  -16.2925  -21.5103 H   0  0  0  0  0  0  0  0  0  0  0  0
   20.1902  -15.0267  -23.9042 H   0  0  0  0  0  0  0  0  0  0  0  0
   21.5990  -15.2714  -22.8206 H   0  0  0  0  0  0  0  0  0  0  0  0
   20.3315  -12.6924  -23.5914 H   0  0  0  0  0  0  0  0  0  0  0  0
   21.7745  -12.9342  -22.5449 H   0  0  0  0  0  0  0  0  0  0  0  0
   19.0768  -15.3888  -18.9263 H   0  0  0  0  0  0  0  0  0  0  0  0
   19.5375  -13.6965  -18.5483 H   0  0  0  0  0  0  0  0  0  0  0  0
   18.1260  -14.0522  -19.6033 H   0  0  0  0  0  0  0  0  0  0  0  0
   22.2547  -14.2811  -20.9466 H   0  0  0  0  0  0  0  0  0  0  0  0
   21.7698  -15.4774  -19.7260 H   0  0  0  0  0  0  0  0  0  0  0  0
   21.7698  -13.7445  -19.3017 H   0  0  0  0  0  0  0  0  0  0  0  0
   21.1733  -11.4158  -20.7216 H   0  0  0  0  0  0  0  0  0  0  0  0
   19.5676  -10.8409  -21.3010 H   0  0  0  0  0  0  0  0  0  0  0  0
   19.6999  -11.6794  -19.7096 H   0  0  0  0  0  0  0  0  0  0  0  0
  3  2  1  0
  3  1  2  0
  4  3  1  0
  5  4  1  0
  6  5  1  0
  7  6  1  0
  7  2  1  0
  8  5  1  0
  8  2  1  0
  8  9  1  0
 10  8  1  0
  2 11  1  1
  4 12  1  0
  4 13  1  0
  5 14  1  1
  6 15  1  0
  6 16  1  0
  7 17  1  0
  7 18  1  0
  9 19  1  0
  9 20  1  0
  9 21  1  0
 10 22  1  0
 10 23  1  0
 10 24  1  0
 11 25  1  0
 11 26  1  0
 11 27  1  0
M  END
