
     RDKit          3D

 33 34  0  0  0  0  0  0  0  0999 V2000
   27.7588   51.0115  133.2779 P   0  0  0  0  0  0  0  0  0  0  0  0
   27.1285   51.9821  132.3102 O   0  0  0  0  0  0  0  0  0  0  0  0
   27.9441   51.7697  134.7563 O   0  0  0  0  0  0  0  0  0  0  0  0
   29.2619   50.5584  132.7015 O   0  0  0  0  0  0  0  0  0  0  0  0
   27.2795   48.5148  133.8699 C   0  0  0  0  0  0  0  0  0  0  0  0
   26.6906   49.7132  133.4313 O   0  0  0  0  0  0  0  0  0  0  0  0
   27.9164   47.8446  132.6135 C   0  0  1  0  0  0  0  0  0  0  0  0
   26.9020   47.4920  131.6746 O   0  0  0  0  0  0  0  0  0  0  0  0
   28.8898   48.7730  131.8765 C   0  0  1  0  0  0  0  0  0  0  0  0
   29.9207   48.0396  131.2562 O   0  0  0  0  0  0  0  0  0  0  0  0
   28.0233   49.4412  130.8290 C   0  0  0  0  0  0  0  0  0  0  0  0
   26.8943   48.4403  130.5916 C   0  0  2  0  0  0  0  0  0  0  0  0
   25.5927   49.1695  130.4491 N   0  0  0  0  0  0  0  0  0  0  0  0
   25.2719   49.8766  129.2946 C   0  0  0  0  0  0  0  0  0  0  0  0
   26.0319   49.8586  128.2799 O   0  0  0  0  0  0  0  0  0  0  0  0
   24.1194   50.6172  129.2437 N   0  0  0  0  0  0  0  0  0  0  0  0
   23.2573   50.6807  130.3013 C   0  0  0  0  0  0  0  0  0  0  0  0
   22.2074   51.3773  130.2238 O   0  0  0  0  0  0  0  0  0  0  0  0
   23.5438   49.9637  131.4642 C   0  0  0  0  0  0  0  0  0  0  0  0
   24.7139   49.2086  131.5076 C   0  0  0  0  0  0  0  0  0  0  0  0
   22.7098   49.9845  132.5418 F   0  0  0  0  0  0  0  0  0  0  0  0
   27.0228   51.9862  135.0483 H   0  0  0  0  0  0  0  0  0  0  0  0
   29.0813   49.8088  132.0799 H   0  0  0  0  0  0  0  0  0  0  0  0
   26.5133   47.8349  134.3039 H   0  0  0  0  0  0  0  0  0  0  0  0
   28.0715   48.7243  134.6220 H   0  0  0  0  0  0  0  0  0  0  0  0
   28.4422   46.9222  132.9435 H   0  0  0  0  0  0  0  0  0  0  0  0
   29.3468   49.5251  132.5565 H   0  0  0  0  0  0  0  0  0  0  0  0
   30.6504   47.9017  131.9165 H   0  0  0  0  0  0  0  0  0  0  0  0
   27.6373   50.4091  131.2176 H   0  0  0  0  0  0  0  0  0  0  0  0
   28.5907   49.6436  129.8939 H   0  0  0  0  0  0  0  0  0  0  0  0
   27.0962   47.8808  129.6517 H   0  0  0  0  0  0  0  0  0  0  0  0
   23.8945   51.1506  128.3727 H   0  0  0  0  0  0  0  0  0  0  0  0
   24.9101   48.6583  132.4177 H   0  0  0  0  0  0  0  0  0  0  0  0
  2  1  2  0
  3  1  1  0
  4  1  1  0
  6  1  1  0
  6  5  1  0
  7  5  1  0
  8  7  1  0
  9  7  1  0
  9 10  1  0
 11  9  1  0
 12  8  1  0
 12 11  1  0
 12 13  1  0
 14 13  1  0
 15 14  2  0
 16 14  1  0
 17 16  1  0
 18 17  2  0
 19 17  1  0
 20 13  1  0
 20 19  2  0
 21 19  1  0
  3 22  1  0
  4 23  1  0
  5 24  1  0
  5 25  1  0
  7 26  1  1
  9 27  1  1
 10 28  1  0
 11 29  1  0
 11 30  1  0
 12 31  1  6
 16 32  1  0
 20 33  1  0
M  END
