
     RDKit          3D

 36 37  0  0  0  0  0  0  0  0999 V2000
   -5.4333    3.9225  -12.7807 N   0  0  0  0  0  0  0  0  0  0  0  0
   -6.3040    4.6387  -11.8407 C   0  0  2  0  0  0  0  0  0  0  0  0
  -11.1684    5.8458  -15.0409 C   0  0  0  0  0  0  0  0  0  0  0  0
  -10.5631    6.8404  -12.8684 C   0  0  0  0  0  0  0  0  0  0  0  0
   -8.2300    4.0862  -13.8108 C   0  0  0  0  0  0  0  0  0  0  0  0
   -9.5111    2.5355  -12.3158 C   0  0  0  0  0  0  0  0  0  0  0  0
  -11.7098    6.2150  -13.6607 C   0  0  2  0  0  0  0  0  0  0  0  0
   -9.0252    5.3010  -14.2313 C   0  0  2  0  0  0  0  0  0  0  0  0
   -9.3353    5.9274  -12.8679 C   0  0  2  0  0  0  0  0  0  0  0  0
   -8.7060    3.8134  -12.3661 C   0  0  2  0  0  0  0  0  0  0  0  0
   -5.5536    5.0716  -10.6176 C   0  0  0  0  0  0  0  0  0  0  0  0
   -6.1596    5.6853   -9.7000 O   0  0  0  0  0  0  0  0  0  0  0  0
  -10.7471    2.5533  -12.5616 O   0  0  0  0  0  0  0  0  0  0  0  0
   -8.8892    1.3329  -12.0226 O   0  0  0  0  0  0  0  0  0  0  0  0
  -12.1997    5.0639  -13.0135 O   0  0  0  0  0  0  0  0  0  0  0  0
  -10.1781    4.8448  -14.9275 O   0  0  0  0  0  0  0  0  0  0  0  0
   -9.5407    4.8758  -11.9655 O   0  0  0  0  0  0  0  0  0  0  0  0
   -7.4950    3.7550  -11.4084 C   0  0  0  0  0  0  0  0  0  0  0  0
   -4.2000    4.8131  -10.4953 O   0  0  0  0  0  0  0  0  0  0  0  0
   -5.4310    2.9008  -12.5536 H   0  0  0  0  0  0  0  0  0  0  0  0
   -4.4548    4.2784  -12.6779 H   0  0  0  0  0  0  0  0  0  0  0  0
   -6.6743    5.5605  -12.3376 H   0  0  0  0  0  0  0  0  0  0  0  0
  -12.0018    5.4463  -15.6566 H   0  0  0  0  0  0  0  0  0  0  0  0
  -10.7682    6.7409  -15.5699 H   0  0  0  0  0  0  0  0  0  0  0  0
  -10.2892    7.8144  -13.3314 H   0  0  0  0  0  0  0  0  0  0  0  0
  -10.8861    7.0486  -11.8250 H   0  0  0  0  0  0  0  0  0  0  0  0
   -7.1458    4.3363  -13.8519 H   0  0  0  0  0  0  0  0  0  0  0  0
   -8.3969    3.2256  -14.4980 H   0  0  0  0  0  0  0  0  0  0  0  0
  -12.5281    6.9617  -13.7828 H   0  0  0  0  0  0  0  0  0  0  0  0
   -8.4245    5.9814  -14.8760 H   0  0  0  0  0  0  0  0  0  0  0  0
   -8.4592    6.5248  -12.5245 H   0  0  0  0  0  0  0  0  0  0  0  0
   -9.3981    0.5789  -11.5772 H   0  0  0  0  0  0  0  0  0  0  0  0
  -12.6375    4.5105  -13.7118 H   0  0  0  0  0  0  0  0  0  0  0  0
   -7.8515    4.0551  -10.3973 H   0  0  0  0  0  0  0  0  0  0  0  0
   -7.1416    2.7033  -11.3163 H   0  0  0  0  0  0  0  0  0  0  0  0
   -3.5253    5.5686  -10.4809 H   0  0  0  0  0  0  0  0  0  0  0  0
  2  1  1  0
  7  3  1  0
  7  4  1  0
  8  5  1  0
  9  8  1  0
  9  4  1  0
 10  6  1  0
 10  5  1  0
 11  2  1  0
 12 11  2  0
 13  6  2  0
 14  6  1  0
  7 15  1  0
 16  3  1  0
 16  8  1  0
 17 10  1  0
 17  9  1  0
 10 18  1  1
 18  2  1  0
 19 11  1  0
  1 20  1  0
  1 21  1  0
  2 22  1  6
  3 23  1  0
  3 24  1  0
  4 25  1  0
  4 26  1  0
  5 27  1  0
  5 28  1  0
  7 29  1  6
  8 30  1  6
  9 31  1  1
 14 32  1  0
 15 33  1  0
 18 34  1  0
 18 35  1  0
 19 36  1  0
M  END
