
     RDKit          3D

 26 25  0  0  0  0  0  0  0  0999 V2000
   15.5424   10.4046   19.8114 P   0  0  0  0  0  0  0  0  0  0  0  0
   15.9077   12.4767   18.3514 C   0  0  0  0  0  0  0  0  0  0  0  0
   17.4340   14.3915   19.0878 N   0  0  0  0  0  0  0  0  0  0  0  0
   16.2080    9.7642   21.0068 O   0  0  0  0  0  0  0  0  0  0  0  0
   16.8161   13.6740   17.9327 C   0  0  0  0  0  0  0  0  0  0  0  0
   16.6053   11.5703   19.1794 O   0  0  0  0  0  0  0  0  0  0  0  0
   16.4191   14.8006   20.0889 C   0  0  0  0  0  0  0  0  0  0  0  0
   15.2236    9.2222   18.6627 O   0  0  0  0  0  0  0  0  0  0  0  0
   18.7378   13.8367   19.3644 C   0  0  0  0  0  0  0  0  0  0  0  0
   14.0962   11.1189   20.2842 O   0  0  0  0  0  0  0  0  0  0  0  0
   17.9874   15.6183   18.8408 C   0  0  0  0  0  0  0  0  0  0  0  0
   15.5927   11.9547   17.4210 H   0  0  0  0  0  0  0  0  0  0  0  0
   14.9854   12.8650   18.8380 H   0  0  0  0  0  0  0  0  0  0  0  0
   16.1748   14.3783   17.3554 H   0  0  0  0  0  0  0  0  0  0  0  0
   17.5767   13.3044   17.2061 H   0  0  0  0  0  0  0  0  0  0  0  0
   15.4289   14.3904   19.8046 H   0  0  0  0  0  0  0  0  0  0  0  0
   16.5694   14.3600   21.1065 H   0  0  0  0  0  0  0  0  0  0  0  0
   16.3158   15.9095   20.1665 H   0  0  0  0  0  0  0  0  0  0  0  0
   16.0641    8.7037   18.5893 H   0  0  0  0  0  0  0  0  0  0  0  0
   19.4548   13.7653   18.4994 H   0  0  0  0  0  0  0  0  0  0  0  0
   19.2316   14.2188   20.3000 H   0  0  0  0  0  0  0  0  0  0  0  0
   18.5944   12.7695   19.6398 H   0  0  0  0  0  0  0  0  0  0  0  0
   14.3553   11.7889   20.9658 H   0  0  0  0  0  0  0  0  0  0  0  0
   18.7659   16.0141   19.5597 H   0  0  0  0  0  0  0  0  0  0  0  0
   18.3294   15.7840   17.7780 H   0  0  0  0  0  0  0  0  0  0  0  0
   17.2057   16.4231   18.8334 H   0  0  0  0  0  0  0  0  0  0  0  0
  4  1  2  0
  5  2  1  0
  5  3  1  0
  6  1  1  0
  6  2  1  0
  3  7  1  0
  8  1  1  0
  9  3  1  0
 10  1  1  0
 11  3  1  0
  2 12  1  0
  2 13  1  0
  5 14  1  0
  5 15  1  0
  7 16  1  0
  7 17  1  0
  7 18  1  0
  8 19  1  0
  9 20  1  0
  9 21  1  0
  9 22  1  0
 10 23  1  0
 11 24  1  0
 11 25  1  0
 11 26  1  0
M  CHG  1   3   1
M  END
