
     RDKit          3D

 85 87  0  0  0  0  0  0  0  0999 V2000
   47.5627    0.3425   15.4365 P   0  0  2  0  0  0  0  0  0  0  0  0
   45.6874    1.3160   17.2857 P   0  0  1  0  0  0  0  0  0  0  0  0
   44.1836   -2.8619   14.0512 C   0  0  0  0  0  0  0  0  0  0  0  0
   44.2236   -2.8065   15.5416 C   0  0  0  0  0  0  0  0  0  0  0  0
   44.8069   -3.7188   16.1857 O   0  0  0  0  0  0  0  0  0  0  0  0
   43.5734   -0.4881   21.7493 C   0  0  0  0  0  0  0  0  0  0  0  0
   43.9007   -1.8055   22.1104 O   0  0  0  0  0  0  0  0  0  0  0  0
   43.4312   -0.3681   20.2293 C   0  0  1  0  0  0  0  0  0  0  0  0
   44.6386   -0.8456   19.6430 O   0  0  0  0  0  0  0  0  0  0  0  0
   42.1964   -1.1670   19.7188 C   0  0  1  0  0  0  0  0  0  0  0  0
   40.9979   -0.6544   20.2405 O   0  0  0  0  0  0  0  0  0  0  0  0
   42.1334   -1.1840   18.1814 C   0  0  2  0  0  0  0  0  0  0  0  0
   41.0713   -2.0489   17.8023 O   0  0  0  0  0  0  0  0  0  0  0  0
   43.4977   -1.7048   17.6889 C   0  0  1  0  0  0  0  0  0  0  0  0
   43.5613   -1.7465   16.2307 N   0  0  0  0  0  0  0  0  0  0  0  0
   48.1662   -1.7308    9.7933 O   0  0  0  0  0  0  0  0  0  0  0  0
   44.5932   -0.7744   18.2327 C   0  0  1  0  0  0  0  0  0  0  0  0
   44.3035    0.5607   17.8468 O   0  0  0  0  0  0  0  0  0  0  0  0
   48.4749    0.5729   10.5425 C   0  0  1  0  0  0  0  0  0  0  0  0
   49.9107    0.6441   10.8586 N   0  0  0  0  0  0  0  0  0  0  0  0
   48.3366   -0.8055   16.0431 O   0  0  0  0  0  0  0  0  0  0  0  0
   45.3449    2.7433   16.9241 O   0  0  0  0  0  0  0  0  0  0  0  0
   50.8598    0.6914    9.8714 C   0  0  0  0  0  0  0  0  0  0  0  0
   48.0109   -0.8373   10.8537 C   0  0  1  0  0  0  0  0  0  0  0  0
   50.5211    0.7673    8.6568 O   0  0  0  0  0  0  0  0  0  0  0  0
   48.3657    1.8032   15.5875 O   0  0  0  0  0  0  0  0  0  0  0  0
   46.8555    1.2650   18.4841 O   0  0  0  0  0  0  0  0  0  0  0  0
   46.6091   -0.7057   11.3465 C   0  0  2  0  0  0  0  0  0  0  0  0
   52.1859    0.6809   10.2027 N   0  0  0  0  0  0  0  0  0  0  0  0
   45.9726    0.3570   15.9433 O   0  0  0  0  0  0  0  0  0  0  0  0
   45.6766   -1.0509   10.3701 O   0  0  0  0  0  0  0  0  0  0  0  0
   52.5924    0.6575   11.5055 C   0  0  0  0  0  0  0  0  0  0  0  0
   46.5407    0.7808   11.7398 C   0  0  2  0  0  0  0  0  0  0  0  0
   41.0702   -4.0590   15.9684 N   0  0  0  0  0  0  0  0  0  0  0  0
   53.8112    0.8022   11.7985 O   0  0  0  0  0  0  0  0  0  0  0  0
   47.7445    1.4440   11.3710 O   0  0  0  0  0  0  0  0  0  0  0  0
   51.6478    0.5133   12.5148 C   0  0  0  0  0  0  0  0  0  0  0  0
   46.3865    0.8627   13.2518 C   0  0  0  0  0  0  0  0  0  0  0  0
   47.3719    0.0158   13.8118 O   0  0  0  0  0  0  0  0  0  0  0  0
   50.3068    0.5263   12.1669 C   0  0  0  0  0  0  0  0  0  0  0  0
   40.4019   -1.6823   16.5980 C   0  0  1  0  0  0  0  0  0  0  0  0
   40.0536   -2.6375   14.4271 O   0  0  0  0  0  0  0  0  0  0  0  0
   40.4847   -2.8083   15.5993 C   0  0  0  0  0  0  0  0  0  0  0  0
   38.7225   -4.4736   14.5904 O   0  0  0  0  0  0  0  0  0  0  0  0
   38.9429   -1.3221   16.9104 C   0  0  0  0  0  0  0  0  0  0  0  0
   39.7954   -5.9190   13.1746 O   0  0  0  0  0  0  0  0  0  0  0  0
   41.0678   -5.2091   15.0706 C   0  0  2  0  0  0  0  0  0  0  0  0
   39.8360   -5.2075   14.2133 C   0  0  0  0  0  0  0  0  0  0  0  0
   41.1382   -6.5004   15.8826 C   0  0  0  0  0  0  0  0  0  0  0  0
   43.3285   -3.4920   13.7302 H   0  0  0  0  0  0  0  0  0  0  0  0
   44.0623   -1.8446   13.6267 H   0  0  0  0  0  0  0  0  0  0  0  0
   45.1267   -3.2993   13.6612 H   0  0  0  0  0  0  0  0  0  0  0  0
   42.6232   -0.2020   22.2481 H   0  0  0  0  0  0  0  0  0  0  0  0
   44.3565    0.2195   22.1084 H   0  0  0  0  0  0  0  0  0  0  0  0
   43.5018   -2.4017   21.4241 H   0  0  0  0  0  0  0  0  0  0  0  0
   43.2924    0.7151   20.0102 H   0  0  0  0  0  0  0  0  0  0  0  0
   42.2894   -2.2191   20.0709 H   0  0  0  0  0  0  0  0  0  0  0  0
   40.9263    0.2940   19.9550 H   0  0  0  0  0  0  0  0  0  0  0  0
   41.9556   -0.1375   17.8382 H   0  0  0  0  0  0  0  0  0  0  0  0
   43.6522   -2.7257   18.1065 H   0  0  0  0  0  0  0  0  0  0  0  0
   43.2577   -0.9055   15.6891 H   0  0  0  0  0  0  0  0  0  0  0  0
   47.7427   -1.3336    8.9880 H   0  0  0  0  0  0  0  0  0  0  0  0
   45.5589   -1.1788   17.8489 H   0  0  0  0  0  0  0  0  0  0  0  0
   48.2617    0.8467    9.4853 H   0  0  0  0  0  0  0  0  0  0  0  0
   48.5925   -1.2669   11.6984 H   0  0  0  0  0  0  0  0  0  0  0  0
   48.7576    1.7882   16.4967 H   0  0  0  0  0  0  0  0  0  0  0  0
   46.5616    0.5615   19.1149 H   0  0  0  0  0  0  0  0  0  0  0  0
   46.4584   -1.4172   12.1941 H   0  0  0  0  0  0  0  0  0  0  0  0
   52.9031    0.7550    9.4452 H   0  0  0  0  0  0  0  0  0  0  0  0
   44.7897   -0.7608   10.7102 H   0  0  0  0  0  0  0  0  0  0  0  0
   45.6800    1.2886   11.2511 H   0  0  0  0  0  0  0  0  0  0  0  0
   41.4039   -4.2084   16.9471 H   0  0  0  0  0  0  0  0  0  0  0  0
   51.9449    0.4648   13.5554 H   0  0  0  0  0  0  0  0  0  0  0  0
   45.3678    0.5116   13.5275 H   0  0  0  0  0  0  0  0  0  0  0  0
   46.5110    1.9264   13.5629 H   0  0  0  0  0  0  0  0  0  0  0  0
   49.5854    0.4729   12.9644 H   0  0  0  0  0  0  0  0  0  0  0  0
   40.8550   -0.7934   16.1024 H   0  0  0  0  0  0  0  0  0  0  0  0
   37.8797   -4.4814   14.0285 H   0  0  0  0  0  0  0  0  0  0  0  0
   38.4179   -2.1966   17.3511 H   0  0  0  0  0  0  0  0  0  0  0  0
   38.9133   -0.4832   17.6377 H   0  0  0  0  0  0  0  0  0  0  0  0
   38.4138   -1.0072   15.9856 H   0  0  0  0  0  0  0  0  0  0  0  0
   41.9668   -5.1733   14.4159 H   0  0  0  0  0  0  0  0  0  0  0  0
   41.1222   -7.3812   15.2053 H   0  0  0  0  0  0  0  0  0  0  0  0
   42.0830   -6.5366   16.4588 H   0  0  0  0  0  0  0  0  0  0  0  0
   40.2793   -6.5740   16.5843 H   0  0  0  0  0  0  0  0  0  0  0  0
  4  3  1  0
  5  4  2  0
  7  6  1  0
  8  6  1  0
  9  8  1  0
 10  8  1  0
 10 11  1  0
 12 10  1  0
 12 13  1  0
 14 12  1  0
 14 15  1  0
 15  4  1  0
 17 14  1  0
 17  9  1  0
 17 18  1  0
  2 18  1  1
 19 20  1  0
 21  1  2  0
 22  2  2  0
 23 20  1  0
 24 16  1  0
 24 19  1  0
 25 23  2  0
  1 26  1  6
 27  2  1  0
 28 24  1  0
 29 23  1  0
 30  1  1  0
 30  2  1  0
 28 31  1  0
 32 29  1  0
 33 28  1  0
 35 32  2  0
 36 33  1  0
 36 19  1  0
 37 32  1  0
 33 38  1  0
 39 38  1  0
 39  1  1  0
 40 37  2  0
 40 20  1  0
 41 13  1  0
 43 42  2  0
 43 41  1  0
 43 34  1  0
 41 45  1  0
 47 34  1  0
 48 46  2  0
 48 44  1  0
 48 47  1  0
 47 49  1  0
  3 50  1  0
  3 51  1  0
  3 52  1  0
  6 53  1  0
  6 54  1  0
  7 55  1  0
  8 56  1  1
 10 57  1  1
 11 58  1  0
 12 59  1  6
 14 60  1  1
 15 61  1  0
 16 62  1  0
 17 63  1  6
 19 64  1  6
 24 65  1  1
 26 66  1  0
 27 67  1  0
 28 68  1  1
 29 69  1  0
 31 70  1  0
 33 71  1  6
 34 72  1  0
 37 73  1  0
 38 74  1  0
 38 75  1  0
 40 76  1  0
 41 77  1  6
 44 78  1  0
 45 79  1  0
 45 80  1  0
 45 81  1  0
 47 82  1  6
 49 83  1  0
 49 84  1  0
 49 85  1  0
M  END
