
     RDKit          3D

 57 59  0  0  0  0  0  0  0  0999 V2000
   10.5524   29.3590   15.2333 P   0  0  0  0  0  0  0  0  0  0  0  0
   18.9683   30.8421   17.9084 N   0  0  0  0  0  0  0  0  0  0  0  0
   18.8486   31.5595   16.7363 C   0  0  0  0  0  0  0  0  0  0  0  0
   17.7374   31.1077   15.9700 C   0  0  0  0  0  0  0  0  0  0  0  0
   17.2000   30.0826   16.7544 C   0  0  0  0  0  0  0  0  0  0  0  0
   16.1093   29.2409   16.5299 C   0  0  0  0  0  0  0  0  0  0  0  0
   15.7808   28.2639   17.5070 C   0  0  0  0  0  0  0  0  0  0  0  0
   16.5363   28.1669   18.6807 C   0  0  0  0  0  0  0  0  0  0  0  0
   17.6290   29.0103   18.8876 C   0  0  0  0  0  0  0  0  0  0  0  0
   17.9448   29.9606   17.9027 C   0  0  0  0  0  0  0  0  0  0  0  0
   19.8161   32.6426   16.3092 C   0  0  0  0  0  0  0  0  0  0  0  0
   17.2767   31.5888   14.5877 C   0  0  0  0  0  0  0  0  0  0  0  0
   14.7265   27.3614   17.3449 O   0  0  0  0  0  0  0  0  0  0  0  0
   20.0143   30.9214   18.9572 C   0  0  0  0  0  0  0  0  0  0  0  0
   21.1750   26.9742   20.3450 C   0  0  0  0  0  0  0  0  0  0  0  0
   20.7795   27.1668   19.0199 C   0  0  0  0  0  0  0  0  0  0  0  0
   20.4135   28.4391   18.5726 C   0  0  0  0  0  0  0  0  0  0  0  0
   20.4195   29.5388   19.4504 C   0  0  0  0  0  0  0  0  0  0  0  0
   20.8387   29.3378   20.7816 C   0  0  0  0  0  0  0  0  0  0  0  0
   21.2110   28.0594   21.2245 C   0  0  0  0  0  0  0  0  0  0  0  0
   21.1568   32.0360   15.9122 C   0  0  0  0  0  0  0  0  0  0  0  0
   15.7816   31.7748   14.5052 C   0  0  0  0  0  0  0  0  0  0  0  0
   15.0895   31.7615   15.5540 O   0  0  0  0  0  0  0  0  0  0  0  0
   15.1338   31.9685   13.2502 N   0  0  0  0  0  0  0  0  0  0  0  0
   13.7766   27.4335   16.2965 C   0  0  0  0  0  0  0  0  0  0  0  0
   12.7790   28.5405   16.6146 C   0  0  0  0  0  0  0  0  0  0  0  0
    9.1430   28.9523   14.9114 O   0  0  0  0  0  0  0  0  0  0  0  0
   10.4841   30.8093   16.0865 O   0  0  0  0  0  0  0  0  0  0  0  0
   11.3380   29.4772   13.7558 O   0  0  0  0  0  0  0  0  0  0  0  0
   11.3647   28.1031   16.2615 C   0  0  0  0  0  0  0  0  0  0  0  0
   15.5489   29.3359   15.6146 H   0  0  0  0  0  0  0  0  0  0  0  0
   16.2840   27.4257   19.4285 H   0  0  0  0  0  0  0  0  0  0  0  0
   18.2093   28.9255   19.7963 H   0  0  0  0  0  0  0  0  0  0  0  0
   19.4120   33.2297   15.4620 H   0  0  0  0  0  0  0  0  0  0  0  0
   19.9644   33.3658   17.1374 H   0  0  0  0  0  0  0  0  0  0  0  0
   17.7511   32.5514   14.3195 H   0  0  0  0  0  0  0  0  0  0  0  0
   17.6061   30.8398   13.8374 H   0  0  0  0  0  0  0  0  0  0  0  0
   19.6246   31.5272   19.8037 H   0  0  0  0  0  0  0  0  0  0  0  0
   20.9203   31.4333   18.5783 H   0  0  0  0  0  0  0  0  0  0  0  0
   21.4598   25.9881   20.6882 H   0  0  0  0  0  0  0  0  0  0  0  0
   20.7605   26.3283   18.3357 H   0  0  0  0  0  0  0  0  0  0  0  0
   20.1207   28.5566   17.5375 H   0  0  0  0  0  0  0  0  0  0  0  0
   20.8698   30.1692   21.4745 H   0  0  0  0  0  0  0  0  0  0  0  0
   21.5245   27.9132   22.2500 H   0  0  0  0  0  0  0  0  0  0  0  0
   21.8363   32.8390   15.5570 H   0  0  0  0  0  0  0  0  0  0  0  0
   21.6316   31.5342   16.7806 H   0  0  0  0  0  0  0  0  0  0  0  0
   21.0178   31.2993   15.0922 H   0  0  0  0  0  0  0  0  0  0  0  0
   14.0973   32.0871   13.2058 H   0  0  0  0  0  0  0  0  0  0  0  0
   15.6812   31.9804   12.3614 H   0  0  0  0  0  0  0  0  0  0  0  0
   14.2713   27.5719   15.3117 H   0  0  0  0  0  0  0  0  0  0  0  0
   13.2330   26.4657   16.2522 H   0  0  0  0  0  0  0  0  0  0  0  0
   13.0223   29.4597   16.0393 H   0  0  0  0  0  0  0  0  0  0  0  0
   12.8493   28.7798   17.6985 H   0  0  0  0  0  0  0  0  0  0  0  0
   10.0062   30.5897   16.9259 H   0  0  0  0  0  0  0  0  0  0  0  0
   11.3914   28.5474   13.4181 H   0  0  0  0  0  0  0  0  0  0  0  0
   10.7637   27.9703   17.1867 H   0  0  0  0  0  0  0  0  0  0  0  0
   11.3899   27.1394   15.7090 H   0  0  0  0  0  0  0  0  0  0  0  0
  3  2  1  0
  4  3  2  0
  5  4  1  0
  6  5  1  0
  7  6  2  0
  8  7  1  0
  9  8  2  0
 10  5  2  0
 10  9  1  0
 10  2  1  0
 11  3  1  0
 12  4  1  0
 13  7  1  0
 14  2  1  0
 16 15  2  0
 17 16  1  0
 18 17  2  0
 18 14  1  0
 19 18  1  0
 20 19  2  0
 20 15  1  0
 21 11  1  0
 22 12  1  0
 23 22  2  0
 24 22  1  0
 25 13  1  0
 26 25  1  0
 27  1  2  0
 28  1  1  0
 29  1  1  0
 30  1  1  0
 30 26  1  0
  6 31  1  0
  8 32  1  0
  9 33  1  0
 11 34  1  0
 11 35  1  0
 12 36  1  0
 12 37  1  0
 14 38  1  0
 14 39  1  0
 15 40  1  0
 16 41  1  0
 17 42  1  0
 19 43  1  0
 20 44  1  0
 21 45  1  0
 21 46  1  0
 21 47  1  0
 24 48  1  0
 24 49  1  0
 25 50  1  0
 25 51  1  0
 26 52  1  0
 26 53  1  0
 28 54  1  0
 29 55  1  0
 30 56  1  0
 30 57  1  0
M  END
