
     RDKit          3D

 57 59  0  0  0  0  0  0  0  0999 V2000
   14.1701   40.1559   31.4688 P   0  0  0  0  0  0  0  0  0  0  0  0
   18.5354   33.3146   29.2675 N   0  0  0  0  0  0  0  0  0  0  0  0
   17.8816   32.9924   30.4365 C   0  0  0  0  0  0  0  0  0  0  0  0
   17.5931   34.1488   31.1926 C   0  0  0  0  0  0  0  0  0  0  0  0
   18.1358   35.1819   30.4250 C   0  0  0  0  0  0  0  0  0  0  0  0
   18.1970   36.5429   30.6757 C   0  0  0  0  0  0  0  0  0  0  0  0
   18.7739   37.4067   29.7131 C   0  0  0  0  0  0  0  0  0  0  0  0
   19.3058   36.8763   28.5258 C   0  0  0  0  0  0  0  0  0  0  0  0
   19.2655   35.4920   28.2991 C   0  0  0  0  0  0  0  0  0  0  0  0
   18.6686   34.6632   29.2735 C   0  0  0  0  0  0  0  0  0  0  0  0
   17.5486   31.5807   30.8732 C   0  0  0  0  0  0  0  0  0  0  0  0
   16.9851   34.2038   32.5928 C   0  0  0  0  0  0  0  0  0  0  0  0
   18.8341   38.7871   29.9253 O   0  0  0  0  0  0  0  0  0  0  0  0
   19.0548   32.4023   28.2271 C   0  0  0  0  0  0  0  0  0  0  0  0
   23.3509   32.7350   27.9058 C   0  0  0  0  0  0  0  0  0  0  0  0
   22.7274   32.9061   29.1432 C   0  0  0  0  0  0  0  0  0  0  0  0
   21.3431   32.7739   29.2522 C   0  0  0  0  0  0  0  0  0  0  0  0
   20.5605   32.5005   28.1150 C   0  0  0  0  0  0  0  0  0  0  0  0
   21.1988   32.3076   26.8755 C   0  0  0  0  0  0  0  0  0  0  0  0
   22.5899   32.4277   26.7744 C   0  0  0  0  0  0  0  0  0  0  0  0
   18.7235   30.9426   31.6051 C   0  0  0  0  0  0  0  0  0  0  0  0
   15.9465   35.2762   32.7316 C   0  0  0  0  0  0  0  0  0  0  0  0
   16.0071   36.3144   32.0229 O   0  0  0  0  0  0  0  0  0  0  0  0
   14.8819   35.1209   33.6632 N   0  0  0  0  0  0  0  0  0  0  0  0
   18.1966   39.4374   31.0208 C   0  0  0  0  0  0  0  0  0  0  0  0
   16.6828   39.2870   30.8754 C   0  0  0  0  0  0  0  0  0  0  0  0
   13.3044   40.6322   32.5995 O   0  0  0  0  0  0  0  0  0  0  0  0
   14.0365   41.2672   30.2114 O   0  0  0  0  0  0  0  0  0  0  0  0
   13.6068   38.6259   31.0693 O   0  0  0  0  0  0  0  0  0  0  0  0
   15.9182   40.0444   31.9545 C   0  0  0  0  0  0  0  0  0  0  0  0
   17.8172   36.9072   31.6146 H   0  0  0  0  0  0  0  0  0  0  0  0
   19.7521   37.5310   27.7885 H   0  0  0  0  0  0  0  0  0  0  0  0
   19.6772   35.0799   27.3877 H   0  0  0  0  0  0  0  0  0  0  0  0
   16.6520   31.5615   31.5223 H   0  0  0  0  0  0  0  0  0  0  0  0
   17.2787   30.9614   29.9943 H   0  0  0  0  0  0  0  0  0  0  0  0
   16.5127   33.2445   32.8733 H   0  0  0  0  0  0  0  0  0  0  0  0
   17.8105   34.3762   33.3153 H   0  0  0  0  0  0  0  0  0  0  0  0
   18.5811   32.6650   27.2564 H   0  0  0  0  0  0  0  0  0  0  0  0
   18.7967   31.3486   28.4455 H   0  0  0  0  0  0  0  0  0  0  0  0
   24.4257   32.8329   27.8240 H   0  0  0  0  0  0  0  0  0  0  0  0
   23.3198   33.1333   30.0201 H   0  0  0  0  0  0  0  0  0  0  0  0
   20.8876   32.9016   30.2255 H   0  0  0  0  0  0  0  0  0  0  0  0
   20.6191   32.0784   25.9901 H   0  0  0  0  0  0  0  0  0  0  0  0
   23.0762   32.2880   25.8176 H   0  0  0  0  0  0  0  0  0  0  0  0
   19.5830   31.6453   31.6125 H   0  0  0  0  0  0  0  0  0  0  0  0
   18.4460   30.7132   32.6552 H   0  0  0  0  0  0  0  0  0  0  0  0
   19.0324   30.0063   31.0930 H   0  0  0  0  0  0  0  0  0  0  0  0
   14.1634   35.8713   33.7683 H   0  0  0  0  0  0  0  0  0  0  0  0
   14.8127   34.2715   34.2663 H   0  0  0  0  0  0  0  0  0  0  0  0
   18.5664   39.0559   31.9961 H   0  0  0  0  0  0  0  0  0  0  0  0
   18.4563   40.5164   30.9735 H   0  0  0  0  0  0  0  0  0  0  0  0
   16.3786   38.2209   30.9036 H   0  0  0  0  0  0  0  0  0  0  0  0
   16.4040   39.6870   29.8750 H   0  0  0  0  0  0  0  0  0  0  0  0
   13.3822   40.8640   29.5867 H   0  0  0  0  0  0  0  0  0  0  0  0
   14.3585   38.0141   31.2750 H   0  0  0  0  0  0  0  0  0  0  0  0
   16.3175   41.0741   32.0740 H   0  0  0  0  0  0  0  0  0  0  0  0
   16.0013   39.5065   32.9228 H   0  0  0  0  0  0  0  0  0  0  0  0
  3  2  1  0
  4  3  2  0
  5  4  1  0
  6  5  2  0
  7  6  1  0
  8  7  2  0
  9  8  1  0
 10  9  2  0
 10  5  1  0
 10  2  1  0
 11  3  1  0
 12  4  1  0
 13  7  1  0
 14  2  1  0
 16 15  2  0
 17 16  1  0
 18 14  1  0
 18 17  2  0
 19 18  1  0
 20 19  2  0
 20 15  1  0
 21 11  1  0
 22 12  1  0
 23 22  2  0
 24 22  1  0
 25 13  1  0
 26 25  1  0
 27  1  2  0
 28  1  1  0
 29  1  1  0
 30  1  1  0
 30 26  1  0
  6 31  1  0
  8 32  1  0
  9 33  1  0
 11 34  1  0
 11 35  1  0
 12 36  1  0
 12 37  1  0
 14 38  1  0
 14 39  1  0
 15 40  1  0
 16 41  1  0
 17 42  1  0
 19 43  1  0
 20 44  1  0
 21 45  1  0
 21 46  1  0
 21 47  1  0
 24 48  1  0
 24 49  1  0
 25 50  1  0
 25 51  1  0
 26 52  1  0
 26 53  1  0
 28 54  1  0
 29 55  1  0
 30 56  1  0
 30 57  1  0
M  END
