
     RDKit          3D

 33 34  0  0  0  0  0  0  0  0999 V2000
   -6.2963    0.6646   24.8800 P   0  0  0  0  0  0  0  0  0  0  0  0
   -7.4377    0.9025   23.9206 O   0  0  0  0  0  0  0  0  0  0  0  0
   -6.1931    1.9290   25.9831 O   0  0  0  0  0  0  0  0  0  0  0  0
   -6.5047   -0.7851   25.7076 O   0  0  0  0  0  0  0  0  0  0  0  0
   -4.5725   -0.4935   23.3652 C   0  0  0  0  0  0  0  0  0  0  0  0
   -4.8021    0.6719   24.1054 O   0  0  0  0  0  0  0  0  0  0  0  0
   -3.0823   -0.8048   23.5817 C   0  0  1  0  0  0  0  0  0  0  0  0
   -2.6010   -1.6713   22.5810 O   0  0  0  0  0  0  0  0  0  0  0  0
   -2.2305    0.4699   23.5810 C   0  0  1  0  0  0  0  0  0  0  0  0
   -1.1262    0.2877   24.4354 O   0  0  0  0  0  0  0  0  0  0  0  0
   -1.7907    0.5373   22.1422 C   0  0  1  0  0  0  0  0  0  0  0  0
   -0.5604    1.1982   21.9898 O   0  0  0  0  0  0  0  0  0  0  0  0
   -1.6805   -0.9479   21.7937 C   0  0  2  0  0  0  0  0  0  0  0  0
   -1.9742   -1.2075   20.3821 N   0  0  0  0  0  0  0  0  0  0  0  0
   -1.2025   -2.0655   19.6444 C   0  0  0  0  0  0  0  0  0  0  0  0
   -0.1870   -2.6161   20.1450 O   0  0  0  0  0  0  0  0  0  0  0  0
   -1.5377   -2.3377   18.3606 N   0  0  0  0  0  0  0  0  0  0  0  0
   -2.6519   -1.7931   17.8155 C   0  0  0  0  0  0  0  0  0  0  0  0
   -2.9617   -2.0573   16.6273 O   0  0  0  0  0  0  0  0  0  0  0  0
   -3.4554   -0.9487   18.5804 C   0  0  0  0  0  0  0  0  0  0  0  0
   -3.0909   -0.6903   19.8560 N   0  0  0  0  0  0  0  0  0  0  0  0
   -5.4683    1.6642   26.6041 H   0  0  0  0  0  0  0  0  0  0  0  0
   -5.8739   -0.7337   26.4695 H   0  0  0  0  0  0  0  0  0  0  0  0
   -5.1853   -1.3369   23.7557 H   0  0  0  0  0  0  0  0  0  0  0  0
   -4.7827   -0.3314   22.2846 H   0  0  0  0  0  0  0  0  0  0  0  0
   -2.9805   -1.3208   24.5632 H   0  0  0  0  0  0  0  0  0  0  0  0
   -2.8033    1.3828   23.8697 H   0  0  0  0  0  0  0  0  0  0  0  0
   -1.4734    0.3233   25.3648 H   0  0  0  0  0  0  0  0  0  0  0  0
   -2.5783    1.0482   21.5416 H   0  0  0  0  0  0  0  0  0  0  0  0
   -0.7439    2.1659   22.1142 H   0  0  0  0  0  0  0  0  0  0  0  0
   -0.6566   -1.2903   22.0667 H   0  0  0  0  0  0  0  0  0  0  0  0
   -0.9426   -2.9832   17.7921 H   0  0  0  0  0  0  0  0  0  0  0  0
   -4.3576   -0.5112   18.1727 H   0  0  0  0  0  0  0  0  0  0  0  0
  2  1  2  0
  3  1  1  0
  4  1  1  0
  6  5  1  0
  6  1  1  0
  7  5  1  0
  8  7  1  0
  9  7  1  0
  9 10  1  0
 11  9  1  0
 11 12  1  0
 13 11  1  0
 13  8  1  0
 13 14  1  0
 15 14  1  0
 16 15  2  0
 17 15  1  0
 18 17  1  0
 19 18  2  0
 20 18  1  0
 21 20  2  0
 21 14  1  0
  3 22  1  0
  4 23  1  0
  5 24  1  0
  5 25  1  0
  7 26  1  1
  9 27  1  1
 10 28  1  0
 11 29  1  6
 12 30  1  0
 13 31  1  1
 17 32  1  0
 20 33  1  0
M  END
