
     RDKit          3D

 52 54  0  0  0  0  0  0  0  0999 V2000
   -7.2935    8.6231   44.9825 N   0  0  0  0  0  0  0  0  0  0  0  0
   -6.1249    7.9580   44.4008 C   0  0  2  0  0  0  0  0  0  0  0  0
   -5.5660    8.7411   43.2744 C   0  0  0  0  0  0  0  0  0  0  0  0
   -6.2973    9.4323   42.5098 O   0  0  0  0  0  0  0  0  0  0  0  0
   -6.4414    6.5600   43.8590 C   0  0  0  0  0  0  0  0  0  0  0  0
   -7.4933    5.8961   44.6730 C   0  0  0  0  0  0  0  0  0  0  0  0
   -7.5601    6.1405   46.0701 N   0  0  0  0  0  0  0  0  0  0  0  0
   -8.3125    5.1101   44.1292 O   0  0  0  0  0  0  0  0  0  0  0  0
   -3.4326    9.1274   41.6646 P   0  0  1  0  0  0  0  0  0  0  0  0
   -3.5613   10.6288   41.5722 O   0  0  0  0  0  0  0  0  0  0  0  0
   -1.8254    8.6581   41.7929 O   0  0  0  0  0  0  0  0  0  0  0  0
   -4.2126    8.5755   43.0518 O   0  0  0  0  0  0  0  0  0  0  0  0
   -4.1198    7.0383   40.3346 C   0  0  0  0  0  0  0  0  0  0  0  0
   -4.1834    8.4441   40.3154 O   0  0  0  0  0  0  0  0  0  0  0  0
   -3.7026    6.5844   38.9358 C   0  0  1  0  0  0  0  0  0  0  0  0
   -4.4833    7.2399   37.9542 O   0  0  0  0  0  0  0  0  0  0  0  0
   -2.2420    6.9149   38.6379 C   0  0  1  0  0  0  0  0  0  0  0  0
   -1.3342    5.9690   39.1558 O   0  0  0  0  0  0  0  0  0  0  0  0
   -2.2447    6.9746   37.1302 C   0  0  1  0  0  0  0  0  0  0  0  0
   -2.1033    5.6815   36.5931 O   0  0  0  0  0  0  0  0  0  0  0  0
   -3.6565    7.4813   36.8272 C   0  0  2  0  0  0  0  0  0  0  0  0
   -3.9295   11.0411   33.0842 N   0  0  0  0  0  0  0  0  0  0  0  0
   -3.9364    9.6769   32.9672 C   0  0  0  0  0  0  0  0  0  0  0  0
   -3.8448    8.8865   34.0787 N   0  0  0  0  0  0  0  0  0  0  0  0
   -3.7453    9.4933   35.2903 C   0  0  0  0  0  0  0  0  0  0  0  0
   -3.7288   10.8408   35.4325 C   0  0  0  0  0  0  0  0  0  0  0  0
   -3.8262   11.6525   34.3012 C   0  0  0  0  0  0  0  0  0  0  0  0
   -3.8284   13.0728   34.3879 N   0  0  0  0  0  0  0  0  0  0  0  0
   -3.6157   11.1761   36.7372 N   0  0  0  0  0  0  0  0  0  0  0  0
   -3.5675    9.9655   37.3661 C   0  0  0  0  0  0  0  0  0  0  0  0
   -3.6562    8.9155   36.5015 N   0  0  0  0  0  0  0  0  0  0  0  0
   -8.0906    8.6326   44.3046 H   0  0  0  0  0  0  0  0  0  0  0  0
   -7.5923    8.1246   45.8516 H   0  0  0  0  0  0  0  0  0  0  0  0
   -7.0509    9.6067   45.2447 H   0  0  0  0  0  0  0  0  0  0  0  0
   -5.3388    7.8720   45.1863 H   0  0  0  0  0  0  0  0  0  0  0  0
   -6.7622    6.6274   42.7956 H   0  0  0  0  0  0  0  0  0  0  0  0
   -5.5286    5.9242   43.8928 H   0  0  0  0  0  0  0  0  0  0  0  0
   -7.9208    7.0461   46.4443 H   0  0  0  0  0  0  0  0  0  0  0  0
   -7.2374    5.4124   46.7453 H   0  0  0  0  0  0  0  0  0  0  0  0
   -1.4190    8.8674   40.9145 H   0  0  0  0  0  0  0  0  0  0  0  0
   -3.4164    6.6044   41.0823 H   0  0  0  0  0  0  0  0  0  0  0  0
   -5.1341    6.6434   40.5576 H   0  0  0  0  0  0  0  0  0  0  0  0
   -3.8837    5.4889   38.8506 H   0  0  0  0  0  0  0  0  0  0  0  0
   -1.9738    7.9194   39.0326 H   0  0  0  0  0  0  0  0  0  0  0  0
   -1.0065    6.2853   40.0374 H   0  0  0  0  0  0  0  0  0  0  0  0
   -1.4590    7.6639   36.7388 H   0  0  0  0  0  0  0  0  0  0  0  0
   -1.1297    5.5254   36.4774 H   0  0  0  0  0  0  0  0  0  0  0  0
   -4.0808    6.9211   35.9640 H   0  0  0  0  0  0  0  0  0  0  0  0
   -4.0177    9.2219   31.9897 H   0  0  0  0  0  0  0  0  0  0  0  0
   -3.7531   13.5541   35.3116 H   0  0  0  0  0  0  0  0  0  0  0  0
   -3.9056   13.6522   33.5227 H   0  0  0  0  0  0  0  0  0  0  0  0
   -3.4598    9.8653   38.4334 H   0  0  0  0  0  0  0  0  0  0  0  0
  2  1  1  0
  3  2  1  0
  4  3  2  0
  5  2  1  0
  6  5  1  0
  7  6  1  0
  8  6  2  0
 10  9  2  0
  9 11  1  1
 12  9  1  0
 12  3  1  0
 14 13  1  0
 14  9  1  0
 15 13  1  0
 16 15  1  0
 17 15  1  0
 17 18  1  0
 19 17  1  0
 19 20  1  0
 21 19  1  0
 21 16  1  0
 23 22  2  0
 24 23  1  0
 25 24  2  0
 26 25  1  0
 27 26  2  0
 27 22  1  0
 28 27  1  0
 29 26  1  0
 30 29  2  0
 31 30  1  0
 31 25  1  0
 21 31  1  0
  1 32  1  0
  1 33  1  0
  1 34  1  0
  2 35  1  1
  5 36  1  0
  5 37  1  0
  7 38  1  0
  7 39  1  0
 11 40  1  0
 13 41  1  0
 13 42  1  0
 15 43  1  1
 17 44  1  1
 18 45  1  0
 19 46  1  1
 20 47  1  0
 21 48  1  6
 23 49  1  0
 28 50  1  0
 28 51  1  0
 30 52  1  0
M  CHG  1   1   1
M  END
