
     RDKit          3D

 52 54  0  0  0  0  0  0  0  0999 V2000
   -5.6829    7.6111   45.2970 N   0  0  0  0  0  0  0  0  0  0  0  0
   -4.5165    7.0648   44.5987 C   0  0  2  0  0  0  0  0  0  0  0  0
   -4.0859    7.9538   43.4948 C   0  0  0  0  0  0  0  0  0  0  0  0
   -4.9096    8.6410   42.8266 O   0  0  0  0  0  0  0  0  0  0  0  0
   -4.7798    5.6858   43.9846 C   0  0  0  0  0  0  0  0  0  0  0  0
   -6.2378    5.4312   43.8459 C   0  0  0  0  0  0  0  0  0  0  0  0
   -7.0006    6.1965   42.9247 N   0  0  0  0  0  0  0  0  0  0  0  0
   -6.7965    4.5510   44.5513 O   0  0  0  0  0  0  0  0  0  0  0  0
   -2.0950    8.5849   41.7829 P   0  0  1  0  0  0  0  0  0  0  0  0
   -2.3246   10.0769   41.8007 O   0  0  0  0  0  0  0  0  0  0  0  0
   -0.4563    8.2182   41.7771 O   0  0  0  0  0  0  0  0  0  0  0  0
   -2.7429    7.8946   43.1762 O   0  0  0  0  0  0  0  0  0  0  0  0
   -2.7369    6.5426   40.3607 C   0  0  0  0  0  0  0  0  0  0  0  0
   -2.8906    7.9392   40.4408 O   0  0  0  0  0  0  0  0  0  0  0  0
   -2.3874    6.2076   38.9108 C   0  0  1  0  0  0  0  0  0  0  0  0
   -3.2727    6.8697   38.0272 O   0  0  0  0  0  0  0  0  0  0  0  0
   -0.9742    6.6543   38.5440 C   0  0  1  0  0  0  0  0  0  0  0  0
    0.0247    5.7412   38.9381 O   0  0  0  0  0  0  0  0  0  0  0  0
   -1.0827    6.8093   37.0470 C   0  0  1  0  0  0  0  0  0  0  0  0
   -0.8962    5.5654   36.4158 O   0  0  0  0  0  0  0  0  0  0  0  0
   -2.5409    7.2374   36.8691 C   0  0  2  0  0  0  0  0  0  0  0  0
   -3.2915   11.0007   33.4006 N   0  0  0  0  0  0  0  0  0  0  0  0
   -3.2199    9.6494   33.1921 C   0  0  0  0  0  0  0  0  0  0  0  0
   -3.0034    8.7981   34.2395 N   0  0  0  0  0  0  0  0  0  0  0  0
   -2.8608    9.3322   35.4806 C   0  0  0  0  0  0  0  0  0  0  0  0
   -2.9202   10.6660   35.7124 C   0  0  0  0  0  0  0  0  0  0  0  0
   -3.1451   11.5393   34.6472 C   0  0  0  0  0  0  0  0  0  0  0  0
   -3.2314   12.9479   34.8297 N   0  0  0  0  0  0  0  0  0  0  0  0
   -2.7405   10.9248   37.0271 N   0  0  0  0  0  0  0  0  0  0  0  0
   -2.5732    9.6828   37.5682 C   0  0  0  0  0  0  0  0  0  0  0  0
   -2.6536    8.6861   36.6419 N   0  0  0  0  0  0  0  0  0  0  0  0
   -6.5231    7.6096   44.6731 H   0  0  0  0  0  0  0  0  0  0  0  0
   -5.8901    7.0394   46.1475 H   0  0  0  0  0  0  0  0  0  0  0  0
   -5.4859    8.5902   45.6092 H   0  0  0  0  0  0  0  0  0  0  0  0
   -3.6753    6.9826   45.3252 H   0  0  0  0  0  0  0  0  0  0  0  0
   -4.2790    5.6082   42.9939 H   0  0  0  0  0  0  0  0  0  0  0  0
   -4.3532    4.8919   44.6375 H   0  0  0  0  0  0  0  0  0  0  0  0
   -7.8262    6.7540   43.2376 H   0  0  0  0  0  0  0  0  0  0  0  0
   -6.7464    6.2029   41.9120 H   0  0  0  0  0  0  0  0  0  0  0  0
   -0.3688    7.3948   42.3202 H   0  0  0  0  0  0  0  0  0  0  0  0
   -1.9585    6.1108   41.0312 H   0  0  0  0  0  0  0  0  0  0  0  0
   -3.7067    6.0667   40.6203 H   0  0  0  0  0  0  0  0  0  0  0  0
   -2.5041    5.1100   38.7632 H   0  0  0  0  0  0  0  0  0  0  0  0
   -0.7441    7.6477   38.9881 H   0  0  0  0  0  0  0  0  0  0  0  0
    0.3851    5.2891   38.1317 H   0  0  0  0  0  0  0  0  0  0  0  0
   -0.3704    7.5736   36.6542 H   0  0  0  0  0  0  0  0  0  0  0  0
    0.0753    5.4832   36.2283 H   0  0  0  0  0  0  0  0  0  0  0  0
   -2.9864    6.7057   35.9986 H   0  0  0  0  0  0  0  0  0  0  0  0
   -3.3382    9.2528   32.1932 H   0  0  0  0  0  0  0  0  0  0  0  0
   -2.5349   13.4562   35.4189 H   0  0  0  0  0  0  0  0  0  0  0  0
   -3.9972   13.4913   34.3731 H   0  0  0  0  0  0  0  0  0  0  0  0
   -2.3874    9.5227   38.6174 H   0  0  0  0  0  0  0  0  0  0  0  0
  2  1  1  0
  3  2  1  0
  4  3  2  0
  5  2  1  0
  6  5  1  0
  7  6  1  0
  8  6  2  0
 10  9  2  0
  9 11  1  6
 12  9  1  0
 12  3  1  0
 14 13  1  0
 14  9  1  0
 15 13  1  0
 16 15  1  0
 17 15  1  0
 17 18  1  0
 19 17  1  0
 19 20  1  0
 21 19  1  0
 21 16  1  0
 23 22  2  0
 24 23  1  0
 25 24  2  0
 26 25  1  0
 27 26  2  0
 27 22  1  0
 28 27  1  0
 29 26  1  0
 30 29  2  0
 31 30  1  0
 31 25  1  0
 21 31  1  0
  1 32  1  0
  1 33  1  0
  1 34  1  0
  2 35  1  1
  5 36  1  0
  5 37  1  0
  7 38  1  0
  7 39  1  0
 11 40  1  0
 13 41  1  0
 13 42  1  0
 15 43  1  1
 17 44  1  1
 18 45  1  0
 19 46  1  6
 20 47  1  0
 21 48  1  6
 23 49  1  0
 28 50  1  0
 28 51  1  0
 30 52  1  0
M  CHG  1   1   1
M  END
