
     RDKit          3D

 24 23  0  0  0  0  0  0  0  0999 V2000
    4.4165    1.8803   39.0089 N   0  0  0  0  0  0  0  0  0  0  0  0
    4.3710    0.5996   38.3012 C   0  0  1  0  0  0  0  0  0  0  0  0
    4.8999    0.7549   36.8697 C   0  0  0  0  0  0  0  0  0  0  0  0
    3.8398    0.3567   35.8436 C   0  0  0  0  0  0  0  0  0  0  0  0
    4.3246   -0.8327   35.0135 C   0  0  0  0  0  0  0  0  0  0  0  0
    3.3183   -1.1754   33.9231 C   0  0  0  0  0  0  0  0  0  0  0  0
    5.3407   -0.6601   39.1878 P   0  0  0  0  0  0  0  0  0  0  0  0
    6.4986   -1.1255   38.3376 O   0  0  0  0  0  0  0  0  0  0  0  0
    5.9196    0.0002   40.6251 O   0  0  0  0  0  0  0  0  0  0  0  0
    4.3430   -1.9696   39.5504 O   0  0  0  0  0  0  0  0  0  0  0  0
    4.1689    1.7198   40.0121 H   0  0  0  0  0  0  0  0  0  0  0  0
    5.3906    2.2611   38.9796 H   0  0  0  0  0  0  0  0  0  0  0  0
    3.3186    0.2399   38.2750 H   0  0  0  0  0  0  0  0  0  0  0  0
    5.7808    0.0919   36.7243 H   0  0  0  0  0  0  0  0  0  0  0  0
    5.2290    1.8033   36.6950 H   0  0  0  0  0  0  0  0  0  0  0  0
    3.6348    1.2220   35.1752 H   0  0  0  0  0  0  0  0  0  0  0  0
    2.8969    0.0762   36.3634 H   0  0  0  0  0  0  0  0  0  0  0  0
    5.2987   -0.5889   34.5354 H   0  0  0  0  0  0  0  0  0  0  0  0
    4.4645   -1.7196   35.6696 H   0  0  0  0  0  0  0  0  0  0  0  0
    2.4391   -1.6812   34.3751 H   0  0  0  0  0  0  0  0  0  0  0  0
    3.7745   -1.8592   33.1757 H   0  0  0  0  0  0  0  0  0  0  0  0
    2.9718   -0.2515   33.4127 H   0  0  0  0  0  0  0  0  0  0  0  0
    5.2526    0.6859   40.8817 H   0  0  0  0  0  0  0  0  0  0  0  0
    3.5691   -1.8849   38.9384 H   0  0  0  0  0  0  0  0  0  0  0  0
  2  1  1  0
  3  2  1  0
  4  3  1  0
  5  4  1  0
  6  5  1  0
  7  2  1  0
  8  7  2  0
  9  7  1  0
 10  7  1  0
  1 11  1  0
  1 12  1  0
  2 13  1  6
  3 14  1  0
  3 15  1  0
  4 16  1  0
  4 17  1  0
  5 18  1  0
  5 19  1  0
  6 20  1  0
  6 21  1  0
  6 22  1  0
  9 23  1  0
 10 24  1  0
M  END
