
     RDKit          3D

 24 23  0  0  0  0  0  0  0  0999 V2000
    2.8553    2.9500   39.7596 N   0  0  0  0  0  0  0  0  0  0  0  0
    2.8268    1.6910   39.0134 C   0  0  1  0  0  0  0  0  0  0  0  0
    2.9412    1.9540   37.5064 C   0  0  0  0  0  0  0  0  0  0  0  0
    1.6172    2.4564   36.9320 C   0  0  0  0  0  0  0  0  0  0  0  0
    1.8137    2.9490   35.4976 C   0  0  0  0  0  0  0  0  0  0  0  0
    0.5227    3.5426   34.9497 C   0  0  0  0  0  0  0  0  0  0  0  0
    4.1723    0.5914   39.5553 P   0  0  0  0  0  0  0  0  0  0  0  0
    5.3088    0.6234   38.5615 O   0  0  0  0  0  0  0  0  0  0  0  0
    4.7226    1.0957   41.0651 O   0  0  0  0  0  0  0  0  0  0  0  0
    3.5800   -0.9814   39.6864 O   0  0  0  0  0  0  0  0  0  0  0  0
    2.6448    2.7509   40.7644 H   0  0  0  0  0  0  0  0  0  0  0  0
    3.8158    3.3624   39.7125 H   0  0  0  0  0  0  0  0  0  0  0  0
    1.8707    1.1652   39.2305 H   0  0  0  0  0  0  0  0  0  0  0  0
    3.2032    1.0088   36.9824 H   0  0  0  0  0  0  0  0  0  0  0  0
    3.7508    2.6908   37.3070 H   0  0  0  0  0  0  0  0  0  0  0  0
    1.2361    3.2878   37.5653 H   0  0  0  0  0  0  0  0  0  0  0  0
    0.8678    1.6340   36.9339 H   0  0  0  0  0  0  0  0  0  0  0  0
    2.6046    3.7304   35.4705 H   0  0  0  0  0  0  0  0  0  0  0  0
    2.1287    2.1036   34.8474 H   0  0  0  0  0  0  0  0  0  0  0  0
   -0.0484    2.7566   34.4120 H   0  0  0  0  0  0  0  0  0  0  0  0
    0.7461    4.3666   34.2388 H   0  0  0  0  0  0  0  0  0  0  0  0
   -0.1058    3.9327   35.7786 H   0  0  0  0  0  0  0  0  0  0  0  0
    5.6485    0.7501   41.1315 H   0  0  0  0  0  0  0  0  0  0  0  0
    3.5063   -1.3107   38.7554 H   0  0  0  0  0  0  0  0  0  0  0  0
  2  1  1  0
  3  2  1  0
  4  3  1  0
  5  4  1  0
  6  5  1  0
  7  2  1  0
  8  7  2  0
  9  7  1  0
 10  7  1  0
  1 11  1  0
  1 12  1  0
  2 13  1  6
  3 14  1  0
  3 15  1  0
  4 16  1  0
  4 17  1  0
  5 18  1  0
  5 19  1  0
  6 20  1  0
  6 21  1  0
  6 22  1  0
  9 23  1  0
 10 24  1  0
M  END
