
     RDKit          3D

 22 23  0  0  0  0  0  0  0  0999 V2000
   31.3892   -4.0185    3.2691 Cl  0  0  0  0  0  0  0  0  0  0  0  0
   28.9959   -2.5541    1.6525 C   0  0  0  0  0  0  0  0  0  0  0  0
   28.0233   -1.9105    0.9584 N   0  0  0  0  0  0  0  0  0  0  0  0
   27.8980   -2.0391   -0.3834 C   0  0  0  0  0  0  0  0  0  0  0  0
   28.7307   -2.8575   -1.0698 N   0  0  0  0  0  0  0  0  0  0  0  0
   29.0370   -2.3306    3.0603 N   0  0  0  0  0  0  0  0  0  0  0  0
   26.8689   -1.3423   -1.0689 N   0  0  0  0  0  0  0  0  0  0  0  0
   31.8385   -4.9416    0.7582 C   0  0  0  0  0  0  0  0  0  0  0  0
   31.0056   -4.1171    1.5540 C   0  0  0  0  0  0  0  0  0  0  0  0
   29.9218   -3.4002    0.9571 C   0  0  0  0  0  0  0  0  0  0  0  0
   29.7295   -3.5324   -0.4464 C   0  0  0  0  0  0  0  0  0  0  0  0
   30.5714   -4.3440   -1.2118 C   0  0  0  0  0  0  0  0  0  0  0  0
   31.6108   -5.0435   -0.6170 C   0  0  0  0  0  0  0  0  0  0  0  0
   32.9371   -5.6701    1.3218 N   0  0  0  0  0  0  0  0  0  0  0  0
   28.2791   -1.7804    3.5186 H   0  0  0  0  0  0  0  0  0  0  0  0
   29.5270   -3.0240    3.6681 H   0  0  0  0  0  0  0  0  0  0  0  0
   25.9135   -1.2673   -0.6540 H   0  0  0  0  0  0  0  0  0  0  0  0
   27.0566   -0.8987   -1.9953 H   0  0  0  0  0  0  0  0  0  0  0  0
   30.4158   -4.4330   -2.2803 H   0  0  0  0  0  0  0  0  0  0  0  0
   32.2477   -5.6665   -1.2328 H   0  0  0  0  0  0  0  0  0  0  0  0
   33.4782   -5.2715    2.1216 H   0  0  0  0  0  0  0  0  0  0  0  0
   33.2472   -6.5999    0.9670 H   0  0  0  0  0  0  0  0  0  0  0  0
  3  2  2  0
  4  3  1  0
  5  4  2  0
  6  2  1  0
  7  4  1  0
  9  8  1  0
  9  1  1  0
 10  9  2  0
 10  2  1  0
 11 10  1  0
 11  5  1  0
 12 11  2  0
 13 12  1  0
 13  8  2  0
 14  8  1  0
  6 15  1  0
  6 16  1  0
  7 17  1  0
  7 18  1  0
 12 19  1  0
 13 20  1  0
 14 21  1  0
 14 22  1  0
M  END
