
     RDKit          3D

 22 23  0  0  0  0  0  0  0  0999 V2000
   13.4014   35.1215   17.0418 Cl  0  0  0  0  0  0  0  0  0  0  0  0
   10.2667   34.3580   17.1733 C   0  0  0  0  0  0  0  0  0  0  0  0
    8.9542   34.0291   17.2556 N   0  0  0  0  0  0  0  0  0  0  0  0
    8.0343   34.8722   17.7776 C   0  0  0  0  0  0  0  0  0  0  0  0
    8.4093   36.0943   18.2296 N   0  0  0  0  0  0  0  0  0  0  0  0
   11.1424   33.3674   16.6393 N   0  0  0  0  0  0  0  0  0  0  0  0
    6.6770   34.4643   17.8680 N   0  0  0  0  0  0  0  0  0  0  0  0
   12.3831   37.3634   18.1833 C   0  0  0  0  0  0  0  0  0  0  0  0
   12.0661   36.0873   17.6615 C   0  0  0  0  0  0  0  0  0  0  0  0
   10.7112   35.6286   17.6634 C   0  0  0  0  0  0  0  0  0  0  0  0
    9.7091   36.4928   18.1887 C   0  0  0  0  0  0  0  0  0  0  0  0
   10.0453   37.7534   18.6952 C   0  0  0  0  0  0  0  0  0  0  0  0
   11.3680   38.1805   18.6939 C   0  0  0  0  0  0  0  0  0  0  0  0
   13.7339   37.8479   18.2071 N   0  0  0  0  0  0  0  0  0  0  0  0
   10.9519   32.9637   15.6968 H   0  0  0  0  0  0  0  0  0  0  0  0
   12.1398   33.3543   16.9479 H   0  0  0  0  0  0  0  0  0  0  0  0
    6.3290   33.9710   18.7199 H   0  0  0  0  0  0  0  0  0  0  0  0
    6.0138   34.6540   17.0840 H   0  0  0  0  0  0  0  0  0  0  0  0
    9.2765   38.4017   19.0979 H   0  0  0  0  0  0  0  0  0  0  0  0
   11.6052   39.1581   19.0948 H   0  0  0  0  0  0  0  0  0  0  0  0
   14.1974   38.0654   19.1175 H   0  0  0  0  0  0  0  0  0  0  0  0
   14.3015   38.0026   17.3466 H   0  0  0  0  0  0  0  0  0  0  0  0
  3  2  2  0
  4  3  1  0
  5  4  2  0
  6  2  1  0
  7  4  1  0
  9  8  1  0
  9  1  1  0
 10  9  2  0
 10  2  1  0
 11 10  1  0
 11  5  1  0
 12 11  2  0
 13 12  1  0
 13  8  2  0
 14  8  1  0
  6 15  1  0
  6 16  1  0
  7 17  1  0
  7 18  1  0
 12 19  1  0
 13 20  1  0
 14 21  1  0
 14 22  1  0
M  END
