
     RDKit          3D

 26 27  0  0  0  0  0  0  0  0999 V2000
   55.9052   88.6805   32.6905 Cl  0  0  0  0  0  0  0  0  0  0  0  0
   50.4700   88.9264   33.0115 Cl  0  0  0  0  0  0  0  0  0  0  0  0
   50.6564   92.5312   34.6539 C   0  0  0  0  0  0  0  0  0  0  0  0
   49.7550   92.8748   33.6446 C   0  0  0  0  0  0  0  0  0  0  0  0
   49.4611   94.2201   33.4055 C   0  0  0  0  0  0  0  0  0  0  0  0
   50.0786   95.2226   34.1676 C   0  0  0  0  0  0  0  0  0  0  0  0
   50.9966   94.8649   35.1718 C   0  0  0  0  0  0  0  0  0  0  0  0
   51.2811   93.5211   35.4151 C   0  0  0  0  0  0  0  0  0  0  0  0
   50.9806   91.1982   34.8588 O   0  0  0  0  0  0  0  0  0  0  0  0
   52.1514   90.6409   34.3430 C   0  0  0  0  0  0  0  0  0  0  0  0
   52.0486   89.5573   33.4642 C   0  0  0  0  0  0  0  0  0  0  0  0
   53.2040   88.9587   32.9577 C   0  0  0  0  0  0  0  0  0  0  0  0
   54.4628   89.4457   33.3221 C   0  0  0  0  0  0  0  0  0  0  0  0
   54.5737   90.5360   34.1876 C   0  0  0  0  0  0  0  0  0  0  0  0
   53.4251   91.1336   34.6979 C   0  0  0  0  0  0  0  0  0  0  0  0
   49.7499   96.6327   33.9099 C   0  0  0  0  0  0  0  0  0  0  0  0
   48.8255   96.9425   33.1153 O   0  0  0  0  0  0  0  0  0  0  0  0
   49.1706   91.8714   32.8771 O   0  0  0  0  0  0  0  0  0  0  0  0
   48.7574   94.4833   32.6247 H   0  0  0  0  0  0  0  0  0  0  0  0
   51.4893   95.6220   35.7691 H   0  0  0  0  0  0  0  0  0  0  0  0
   51.9922   93.2490   36.1848 H   0  0  0  0  0  0  0  0  0  0  0  0
   53.1248   88.1140   32.2847 H   0  0  0  0  0  0  0  0  0  0  0  0
   55.5486   90.9144   34.4679 H   0  0  0  0  0  0  0  0  0  0  0  0
   53.5405   91.9710   35.3726 H   0  0  0  0  0  0  0  0  0  0  0  0
   50.3095   97.4207   34.3978 H   0  0  0  0  0  0  0  0  0  0  0  0
   49.7213   91.2913   32.2551 H   0  0  0  0  0  0  0  0  0  0  0  0
  4  3  2  0
  5  4  1  0
  6  5  2  0
  7  6  1  0
  8  3  1  0
  8  7  2  0
  9  3  1  0
 10  9  1  0
 11 10  2  0
 11  2  1  0
 12 11  1  0
 13 12  2  0
 13  1  1  0
 14 13  1  0
 15 14  2  0
 15 10  1  0
 16  6  1  0
 17 16  2  0
 18  4  1  0
  5 19  1  0
  7 20  1  0
  8 21  1  0
 12 22  1  0
 14 23  1  0
 15 24  1  0
 16 25  1  0
 18 26  1  0
M  END
