
     RDKit          3D

 26 27  0  0  0  0  0  0  0  0999 V2000
   55.0271   87.6791   32.0768 Cl  0  0  0  0  0  0  0  0  0  0  0  0
   51.6234   91.8475   32.9397 Cl  0  0  0  0  0  0  0  0  0  0  0  0
   50.6019   91.7071   35.2201 C   0  0  0  0  0  0  0  0  0  0  0  0
   49.7005   92.0507   34.2108 C   0  0  0  0  0  0  0  0  0  0  0  0
   49.4066   93.3960   33.9717 C   0  0  0  0  0  0  0  0  0  0  0  0
   50.0241   94.3985   34.7339 C   0  0  0  0  0  0  0  0  0  0  0  0
   50.9421   94.0408   35.7381 C   0  0  0  0  0  0  0  0  0  0  0  0
   51.2266   92.6970   35.9814 C   0  0  0  0  0  0  0  0  0  0  0  0
   50.9261   90.3741   35.4251 O   0  0  0  0  0  0  0  0  0  0  0  0
   51.9095   89.7343   34.6694 C   0  0  0  0  0  0  0  0  0  0  0  0
   52.3232   90.3228   33.4697 C   0  0  0  0  0  0  0  0  0  0  0  0
   53.2821   89.6891   32.6767 C   0  0  0  0  0  0  0  0  0  0  0  0
   53.8342   88.4710   33.0841 C   0  0  0  0  0  0  0  0  0  0  0  0
   53.4370   87.8840   34.2873 C   0  0  0  0  0  0  0  0  0  0  0  0
   52.4790   88.5100   35.0792 C   0  0  0  0  0  0  0  0  0  0  0  0
   49.6954   95.8086   34.4762 C   0  0  0  0  0  0  0  0  0  0  0  0
   48.5522   96.1380   34.0684 O   0  0  0  0  0  0  0  0  0  0  0  0
   49.1161   91.0473   33.4433 O   0  0  0  0  0  0  0  0  0  0  0  0
   48.7029   93.6591   33.1910 H   0  0  0  0  0  0  0  0  0  0  0  0
   51.4348   94.7979   36.3354 H   0  0  0  0  0  0  0  0  0  0  0  0
   51.9378   92.4249   36.7510 H   0  0  0  0  0  0  0  0  0  0  0  0
   53.5956   90.1400   31.7434 H   0  0  0  0  0  0  0  0  0  0  0  0
   53.8664   86.9418   34.6037 H   0  0  0  0  0  0  0  0  0  0  0  0
   52.1840   88.0290   36.0019 H   0  0  0  0  0  0  0  0  0  0  0  0
   50.4414   96.5785   34.6277 H   0  0  0  0  0  0  0  0  0  0  0  0
   49.6733   90.4332   32.8609 H   0  0  0  0  0  0  0  0  0  0  0  0
  4  3  2  0
  5  4  1  0
  6  5  2  0
  7  6  1  0
  8  3  1  0
  8  7  2  0
  9  3  1  0
 10  9  1  0
 11 10  2  0
 11  2  1  0
 12 11  1  0
 13 12  2  0
 13  1  1  0
 14 13  1  0
 15 14  2  0
 15 10  1  0
 16  6  1  0
 17 16  2  0
 18  4  1  0
  5 19  1  0
  7 20  1  0
  8 21  1  0
 12 22  1  0
 14 23  1  0
 15 24  1  0
 16 25  1  0
 18 26  1  0
M  END
