
     RDKit          3D

 89 91  0  0  0  0  0  0  0  0999 V2000
   28.1673   20.4572    8.7964 C   0  0  2  0  0  0  0  0  0  0  0  0
   22.8887   13.2976    4.1389 C   0  0  0  0  0  0  0  0  0  0  0  0
   22.5267   13.6487    5.2498 O   0  0  0  0  0  0  0  0  0  0  0  0
   28.8496   21.1074    7.7438 O   0  0  0  0  0  0  0  0  0  0  0  0
   28.7269   19.0017    8.9733 C   0  0  0  0  0  0  0  0  0  0  0  0
   27.9922   18.2550   10.1109 C   0  0  0  0  0  0  0  0  0  0  0  0
   28.6055   18.1749    7.6757 C   0  0  0  0  0  0  0  0  0  0  0  0
   22.8662   11.8525    3.7724 C   0  0  0  0  0  0  0  0  0  0  0  0
   34.1151   19.1734   11.6302 P   0  0  2  0  0  0  0  0  0  0  0  0
   31.8108   20.5681   10.7148 P   0  0  2  0  0  0  0  0  0  0  0  0
   39.8372   20.3221    8.4972 P   0  0  0  0  0  0  0  0  0  0  0  0
   23.4989   14.4930    2.9354 S   0  0  0  0  0  0  0  0  0  0  0  0
   22.9763   16.0494    3.7535 C   0  0  0  0  0  0  0  0  0  0  0  0
   24.0978   16.5756    4.6506 C   0  0  0  0  0  0  0  0  0  0  0  0
   23.6062   17.6602    5.4910 N   0  0  0  0  0  0  0  0  0  0  0  0
   24.4841   18.5101    6.2246 C   0  0  0  0  0  0  0  0  0  0  0  0
   25.7320   18.3352    6.1693 O   0  0  0  0  0  0  0  0  0  0  0  0
   23.9060   19.6085    7.0677 C   0  0  0  0  0  0  0  0  0  0  0  0
   24.7453   20.8853    6.9967 C   0  0  0  0  0  0  0  0  0  0  0  0
   26.1523   20.6231    7.2803 N   0  0  0  0  0  0  0  0  0  0  0  0
   26.6807   20.5331    8.6004 C   0  0  0  0  0  0  0  0  0  0  0  0
   25.9136   20.5609    9.6031 O   0  0  0  0  0  0  0  0  0  0  0  0
   36.4813   22.9874    9.7061 C   0  0  1  0  0  0  0  0  0  0  0  0
   34.6712   27.7768    9.9589 N   0  0  0  0  0  0  0  0  0  0  0  0
   34.5961   17.7536   11.4864 O   0  0  0  0  0  0  0  0  0  0  0  0
   35.6317   27.2631    9.1321 C   0  0  0  0  0  0  0  0  0  0  0  0
   37.3564   22.1304   10.6244 C   0  0  2  0  0  0  0  0  0  0  0  0
   34.1529   19.5953   13.2537 O   0  0  0  0  0  0  0  0  0  0  0  0
   38.5423   22.7716   11.0425 O   0  0  0  0  0  0  0  0  0  0  0  0
   37.6506   20.9760    9.7048 C   0  0  2  0  0  0  0  0  0  0  0  0
   36.0065   25.9546    9.2370 N   0  0  0  0  0  0  0  0  0  0  0  0
   32.5595   19.1002   11.0308 O   0  0  0  0  0  0  0  0  0  0  0  0
   38.6433   21.4514    8.8343 O   0  0  0  0  0  0  0  0  0  0  0  0
   35.4023   25.1894   10.1788 C   0  0  0  0  0  0  0  0  0  0  0  0
   36.3428   20.8549    8.9016 C   0  0  2  0  0  0  0  0  0  0  0  0
   32.3255   21.2755    9.4808 O   0  0  0  0  0  0  0  0  0  0  0  0
   35.7029   22.1212    8.9092 O   0  0  0  0  0  0  0  0  0  0  0  0
   34.4501   25.6680   11.0035 C   0  0  0  0  0  0  0  0  0  0  0  0
   35.3963   19.8079    9.5045 C   0  0  0  0  0  0  0  0  0  0  0  0
   31.6896   21.5910   12.0344 O   0  0  0  0  0  0  0  0  0  0  0  0
   35.0973   20.2528   10.7984 O   0  0  0  0  0  0  0  0  0  0  0  0
   34.0648   27.0023   10.9046 C   0  0  0  0  0  0  0  0  0  0  0  0
   33.0753   27.5618   11.7548 N   0  0  0  0  0  0  0  0  0  0  0  0
   30.2552   20.0172   10.4556 O   0  0  0  0  0  0  0  0  0  0  0  0
   33.9990   24.6911   11.8165 N   0  0  0  0  0  0  0  0  0  0  0  0
   40.4407   19.7243    9.7493 O   0  0  0  0  0  0  0  0  0  0  0  0
   34.7322   23.6110   11.4346 C   0  0  0  0  0  0  0  0  0  0  0  0
   39.1866   19.1322    7.5053 O   0  0  0  0  0  0  0  0  0  0  0  0
   35.6135   23.8957   10.4427 N   0  0  0  0  0  0  0  0  0  0  0  0
   40.9901   21.1974    7.6398 O   0  0  0  0  0  0  0  0  0  0  0  0
   30.2094   19.1358    9.3572 C   0  0  0  0  0  0  0  0  0  0  0  0
   28.3398   21.0402    9.7304 H   0  0  0  0  0  0  0  0  0  0  0  0
   28.2463   21.8170    7.3985 H   0  0  0  0  0  0  0  0  0  0  0  0
   27.9972   18.8514   11.0484 H   0  0  0  0  0  0  0  0  0  0  0  0
   26.9353   18.0550    9.8332 H   0  0  0  0  0  0  0  0  0  0  0  0
   28.4746   17.2748   10.3165 H   0  0  0  0  0  0  0  0  0  0  0  0
   27.6404   17.6241    7.6518 H   0  0  0  0  0  0  0  0  0  0  0  0
   29.4293   17.4338    7.5972 H   0  0  0  0  0  0  0  0  0  0  0  0
   28.6488   18.8371    6.7849 H   0  0  0  0  0  0  0  0  0  0  0  0
   23.9013   11.5045    3.5745 H   0  0  0  0  0  0  0  0  0  0  0  0
   22.2525   11.7110    2.8586 H   0  0  0  0  0  0  0  0  0  0  0  0
   22.4320   11.2439    4.5943 H   0  0  0  0  0  0  0  0  0  0  0  0
   22.0394   15.9025    4.3314 H   0  0  0  0  0  0  0  0  0  0  0  0
   22.7651   16.8008    2.9638 H   0  0  0  0  0  0  0  0  0  0  0  0
   24.9642   16.9137    4.0412 H   0  0  0  0  0  0  0  0  0  0  0  0
   24.4516   15.7522    5.3083 H   0  0  0  0  0  0  0  0  0  0  0  0
   22.5726   17.7682    5.6022 H   0  0  0  0  0  0  0  0  0  0  0  0
   22.8759   19.8278    6.7147 H   0  0  0  0  0  0  0  0  0  0  0  0
   23.8368   19.2851    8.1284 H   0  0  0  0  0  0  0  0  0  0  0  0
   24.6558   21.3176    5.9759 H   0  0  0  0  0  0  0  0  0  0  0  0
   24.3472   21.6418    7.7072 H   0  0  0  0  0  0  0  0  0  0  0  0
   26.8007   20.5569    6.4635 H   0  0  0  0  0  0  0  0  0  0  0  0
   37.1208   23.5803    9.0126 H   0  0  0  0  0  0  0  0  0  0  0  0
   36.0971   27.8972    8.3902 H   0  0  0  0  0  0  0  0  0  0  0  0
   36.8091   21.7859   11.5250 H   0  0  0  0  0  0  0  0  0  0  0  0
   33.9439   20.5628   13.2702 H   0  0  0  0  0  0  0  0  0  0  0  0
   38.8646   23.3878   10.3350 H   0  0  0  0  0  0  0  0  0  0  0  0
   37.9224   20.0576   10.2772 H   0  0  0  0  0  0  0  0  0  0  0  0
   36.5610   20.5618    7.8509 H   0  0  0  0  0  0  0  0  0  0  0  0
   34.4743   19.7419    8.8860 H   0  0  0  0  0  0  0  0  0  0  0  0
   35.9092   18.8201    9.5224 H   0  0  0  0  0  0  0  0  0  0  0  0
   31.1788   22.3724   11.7034 H   0  0  0  0  0  0  0  0  0  0  0  0
   32.7064   28.5246   11.5892 H   0  0  0  0  0  0  0  0  0  0  0  0
   32.7032   27.0122   12.5608 H   0  0  0  0  0  0  0  0  0  0  0  0
   34.6029   22.6297   11.8682 H   0  0  0  0  0  0  0  0  0  0  0  0
   38.5537   18.6357    8.0831 H   0  0  0  0  0  0  0  0  0  0  0  0
   40.5219   21.4979    6.8203 H   0  0  0  0  0  0  0  0  0  0  0  0
   30.7792   19.5274    8.4823 H   0  0  0  0  0  0  0  0  0  0  0  0
   30.6280   18.1429    9.6373 H   0  0  0  0  0  0  0  0  0  0  0  0
  3  2  2  0
  1  4  1  0
  5  1  1  0
  5  6  1  0
  7  5  1  0
  8  2  1  0
 12  2  1  0
 13 12  1  0
 14 13  1  0
 15 14  1  0
 16 15  1  0
 17 16  2  0
 18 16  1  0
 19 18  1  0
 20 19  1  0
 21  1  1  0
 21 20  1  0
 22 21  2  0
 25  9  2  0
 26 24  2  0
 27 23  1  0
  9 28  1  1
 27 29  1  0
 30 27  1  0
 31 26  1  0
 10 32  1  1
 32  9  1  0
 30 33  1  0
 33 11  1  0
 34 31  2  0
 35 30  1  0
 36 10  2  0
 37 35  1  0
 37 23  1  0
 38 34  1  0
 35 39  1  0
 40 10  1  0
 41  9  1  0
 41 39  1  0
 42 38  2  0
 42 24  1  0
 43 42  1  0
 44 10  1  0
 45 38  1  0
 46 11  2  0
 47 45  2  0
 48 11  1  0
 49 34  1  0
 23 49  1  0
 49 47  1  0
 50 11  1  0
 51 44  1  0
 51  5  1  0
  1 52  1  1
  4 53  1  0
  6 54  1  0
  6 55  1  0
  6 56  1  0
  7 57  1  0
  7 58  1  0
  7 59  1  0
  8 60  1  0
  8 61  1  0
  8 62  1  0
 13 63  1  0
 13 64  1  0
 14 65  1  0
 14 66  1  0
 15 67  1  0
 18 68  1  0
 18 69  1  0
 19 70  1  0
 19 71  1  0
 20 72  1  0
 23 73  1  6
 26 74  1  0
 27 75  1  1
 28 76  1  0
 29 77  1  0
 30 78  1  1
 35 79  1  6
 39 80  1  0
 39 81  1  0
 40 82  1  0
 43 83  1  0
 43 84  1  0
 47 85  1  0
 48 86  1  0
 50 87  1  0
 51 88  1  0
 51 89  1  0
M  END
