
     RDKit          3D

 33 34  0  0  0  0  0  0  0  0999 V2000
   10.6669   68.0970   26.4314 P   0  0  0  0  0  0  0  0  0  0  0  0
   12.0468   67.4812   26.3753 O   0  0  0  0  0  0  0  0  0  0  0  0
    9.5923   67.1706   25.5401 O   0  0  0  0  0  0  0  0  0  0  0  0
   10.1045   68.2010   28.0122 O   0  0  0  0  0  0  0  0  0  0  0  0
   11.6951   70.4214   25.9569 C   0  0  0  0  0  0  0  0  0  0  0  0
   10.5960   69.6040   25.6822 O   0  0  0  0  0  0  0  0  0  0  0  0
   11.3608   71.7557   25.2678 C   0  0  1  0  0  0  0  0  0  0  0  0
   12.1179   72.8012   25.8233 O   0  0  0  0  0  0  0  0  0  0  0  0
   11.6018   71.7178   23.7517 C   0  0  1  0  0  0  0  0  0  0  0  0
   10.6538   72.5321   23.1041 O   0  0  0  0  0  0  0  0  0  0  0  0
   12.9847   72.3097   23.6386 C   0  0  1  0  0  0  0  0  0  0  0  0
   13.1986   72.9593   22.4031 O   0  0  0  0  0  0  0  0  0  0  0  0
   13.0306   73.2551   24.8502 C   0  0  2  0  0  0  0  0  0  0  0  0
   14.3578   73.3481   25.4764 N   0  0  0  0  0  0  0  0  0  0  0  0
   15.0514   72.2174   25.8351 C   0  0  0  0  0  0  0  0  0  0  0  0
   14.5230   71.0739   25.7557 O   0  0  0  0  0  0  0  0  0  0  0  0
   16.3379   72.3279   26.2583 N   0  0  0  0  0  0  0  0  0  0  0  0
   16.9658   73.5318   26.2726 C   0  0  0  0  0  0  0  0  0  0  0  0
   18.1838   73.6010   26.5828 O   0  0  0  0  0  0  0  0  0  0  0  0
   16.2539   74.6774   25.9199 C   0  0  0  0  0  0  0  0  0  0  0  0
   14.9662   74.5421   25.5163 N   0  0  0  0  0  0  0  0  0  0  0  0
   10.0020   66.2695   25.5059 H   0  0  0  0  0  0  0  0  0  0  0  0
   10.0372   69.1725   28.1929 H   0  0  0  0  0  0  0  0  0  0  0  0
   12.6281   69.9876   25.5335 H   0  0  0  0  0  0  0  0  0  0  0  0
   11.8043   70.5853   27.0522 H   0  0  0  0  0  0  0  0  0  0  0  0
   10.2868   71.9725   25.4669 H   0  0  0  0  0  0  0  0  0  0  0  0
   11.5865   70.6904   23.3183 H   0  0  0  0  0  0  0  0  0  0  0  0
   11.1666   73.1624   22.5336 H   0  0  0  0  0  0  0  0  0  0  0  0
   13.7307   71.4922   23.7430 H   0  0  0  0  0  0  0  0  0  0  0  0
   12.6322   73.7728   22.3614 H   0  0  0  0  0  0  0  0  0  0  0  0
   12.6777   74.2576   24.5236 H   0  0  0  0  0  0  0  0  0  0  0  0
   16.8683   71.4672   26.5266 H   0  0  0  0  0  0  0  0  0  0  0  0
   16.7218   75.6534   25.9295 H   0  0  0  0  0  0  0  0  0  0  0  0
  2  1  2  0
  3  1  1  0
  4  1  1  0
  6  1  1  0
  6  5  1  0
  7  5  1  0
  8  7  1  0
  9  7  1  0
  9 10  1  0
 11  9  1  0
 11 12  1  0
 13 11  1  0
 13  8  1  0
 13 14  1  0
 15 14  1  0
 16 15  2  0
 17 15  1  0
 18 17  1  0
 19 18  2  0
 20 18  1  0
 21 20  2  0
 21 14  1  0
  3 22  1  0
  4 23  1  0
  5 24  1  0
  5 25  1  0
  7 26  1  6
  9 27  1  6
 10 28  1  0
 11 29  1  1
 12 30  1  0
 13 31  1  6
 17 32  1  0
 20 33  1  0
M  END
