
     RDKit          3D

 33 34  0  0  0  0  0  0  0  0999 V2000
   23.6164   91.4296    5.5425 P   0  0  0  0  0  0  0  0  0  0  0  0
   23.1117   91.3204    6.9637 O   0  0  0  0  0  0  0  0  0  0  0  0
   22.4843   92.2208    4.5956 O   0  0  0  0  0  0  0  0  0  0  0  0
   25.0653   92.2783    5.4691 O   0  0  0  0  0  0  0  0  0  0  0  0
   24.5635   89.0254    5.5045 C   0  0  0  0  0  0  0  0  0  0  0  0
   23.7782   89.9318    4.7886 O   0  0  0  0  0  0  0  0  0  0  0  0
   23.7520   87.7184    5.4835 C   0  0  1  0  0  0  0  0  0  0  0  0
   24.4976   86.6679    6.0440 O   0  0  0  0  0  0  0  0  0  0  0  0
   22.4162   87.8354    6.2309 C   0  0  1  0  0  0  0  0  0  0  0  0
   21.4528   87.0244    5.6019 O   0  0  0  0  0  0  0  0  0  0  0  0
   22.7702   87.2891    7.5925 C   0  0  1  0  0  0  0  0  0  0  0  0
   21.6673   86.7012    8.2503 O   0  0  0  0  0  0  0  0  0  0  0  0
   23.8903   86.2904    7.2574 C   0  0  2  0  0  0  0  0  0  0  0  0
   24.9343   86.2114    8.2894 N   0  0  0  0  0  0  0  0  0  0  0  0
   25.2435   87.2984    9.0707 C   0  0  0  0  0  0  0  0  0  0  0  0
   24.6841   88.4152    8.8884 O   0  0  0  0  0  0  0  0  0  0  0  0
   26.1428   87.1618   10.0798 N   0  0  0  0  0  0  0  0  0  0  0  0
   26.6577   85.9448   10.3926 C   0  0  0  0  0  0  0  0  0  0  0  0
   27.3850   85.8140   11.4118 O   0  0  0  0  0  0  0  0  0  0  0  0
   26.3414   84.8446    9.5971 C   0  0  0  0  0  0  0  0  0  0  0  0
   25.4700   85.0152    8.5720 N   0  0  0  0  0  0  0  0  0  0  0  0
   22.0000   92.8153    5.2226 H   0  0  0  0  0  0  0  0  0  0  0  0
   24.8491   93.1781    5.8221 H   0  0  0  0  0  0  0  0  0  0  0  0
   24.7197   89.3697    6.5510 H   0  0  0  0  0  0  0  0  0  0  0  0
   25.5412   88.8660    4.9975 H   0  0  0  0  0  0  0  0  0  0  0  0
   23.5590   87.4626    4.4169 H   0  0  0  0  0  0  0  0  0  0  0  0
   22.0427   88.8828    6.3179 H   0  0  0  0  0  0  0  0  0  0  0  0
   21.0880   87.5549    4.8462 H   0  0  0  0  0  0  0  0  0  0  0  0
   23.1535   88.1226    8.2203 H   0  0  0  0  0  0  0  0  0  0  0  0
   21.6193   85.7402    8.0084 H   0  0  0  0  0  0  0  0  0  0  0  0
   23.4287   85.2933    7.0869 H   0  0  0  0  0  0  0  0  0  0  0  0
   26.3790   87.9888   10.6751 H   0  0  0  0  0  0  0  0  0  0  0  0
   26.7433   83.8629    9.8124 H   0  0  0  0  0  0  0  0  0  0  0  0
  2  1  2  0
  3  1  1  0
  4  1  1  0
  6  1  1  0
  6  5  1  0
  7  5  1  0
  8  7  1  0
  9  7  1  0
  9 10  1  0
 11  9  1  0
 11 12  1  0
 13  8  1  0
 13 11  1  0
 13 14  1  0
 15 14  1  0
 16 15  2  0
 17 15  1  0
 18 17  1  0
 19 18  2  0
 20 18  1  0
 21 14  1  0
 21 20  2  0
  3 22  1  0
  4 23  1  0
  5 24  1  0
  5 25  1  0
  7 26  1  6
  9 27  1  1
 10 28  1  0
 11 29  1  1
 12 30  1  0
 13 31  1  6
 17 32  1  0
 20 33  1  0
M  END
