
     RDKit          3D

 79 82  0  0  0  0  0  0  0  0999 V2000
   25.5031   16.0940   14.9579 C   0  0  1  0  0  0  0  0  0  0  0  0
   24.7612   15.6543   13.8320 O   0  0  0  0  0  0  0  0  0  0  0  0
   23.3232   17.0113   15.1442 C   0  0  0  0  0  0  0  0  0  0  0  0
   14.6680    6.4807   17.7848 O   0  0  0  0  0  0  0  0  0  0  0  0
   15.0155    6.5451   19.1401 C   0  0  0  0  0  0  0  0  0  0  0  0
   25.1199   14.4173   16.6390 C   0  0  1  0  0  0  0  0  0  0  0  0
   24.3434   15.6650   17.0757 C   0  0  0  0  0  0  0  0  0  0  0  0
   24.2817   13.5392   15.9179 O   0  0  0  0  0  0  0  0  0  0  0  0
   23.4037   15.9822   14.0412 C   0  0  0  0  0  0  0  0  0  0  0  0
   24.5525   16.7157   15.9683 C   0  0  1  0  0  0  0  0  0  0  0  0
   26.1634   14.9176   15.6689 C   0  0  0  0  0  0  0  0  0  0  0  0
   23.9550   12.2871   16.3771 C   0  0  0  0  0  0  0  0  0  0  0  0
   22.7379   11.7382   15.9190 N   0  0  0  0  0  0  0  0  0  0  0  0
   24.7020   11.6773   17.1896 O   0  0  0  0  0  0  0  0  0  0  0  0
   21.7178   11.2213   16.8096 C   0  0  1  0  0  0  0  0  0  0  0  0
   20.3775   11.8870   16.4400 C   0  0  0  0  0  0  0  0  0  0  0  0
   20.4899   13.3947   16.5269 C   0  0  0  0  0  0  0  0  0  0  0  0
   20.8032   14.0228   17.7462 C   0  0  0  0  0  0  0  0  0  0  0  0
   20.8932   15.4173   17.8217 C   0  0  0  0  0  0  0  0  0  0  0  0
   20.6564   16.1967   16.6861 C   0  0  0  0  0  0  0  0  0  0  0  0
   20.3272   15.5834   15.4746 C   0  0  0  0  0  0  0  0  0  0  0  0
   20.2417   14.1900   15.3951 C   0  0  0  0  0  0  0  0  0  0  0  0
   21.7286    9.6802   16.6893 C   0  0  2  0  0  0  0  0  0  0  0  0
   21.0926    9.7369   19.0514 N   0  0  0  0  0  0  0  0  0  0  0  0
   21.2572    9.2707   15.4312 O   0  0  0  0  0  0  0  0  0  0  0  0
   19.6235   10.3928   19.6785 S   0  0  0  0  0  0  0  0  0  0  0  0
   20.9294    8.9793   17.7967 C   0  0  0  0  0  0  0  0  0  0  0  0
   19.2644   11.6254   18.9106 O   0  0  0  0  0  0  0  0  0  0  0  0
   21.9037    9.0908   20.0934 C   0  0  0  0  0  0  0  0  0  0  0  0
   19.8554   10.7400   21.1172 O   0  0  0  0  0  0  0  0  0  0  0  0
   22.5185    7.7916   19.5490 C   0  0  0  0  0  0  0  0  0  0  0  0
   23.7399    7.3666   20.3843 C   0  0  0  0  0  0  0  0  0  0  0  0
   21.4624    6.6843   19.5613 C   0  0  0  0  0  0  0  0  0  0  0  0
   18.3050    9.2600   19.5750 C   0  0  0  0  0  0  0  0  0  0  0  0
   16.9909    9.7327   19.6408 C   0  0  0  0  0  0  0  0  0  0  0  0
   15.9291    8.8463   19.5072 C   0  0  0  0  0  0  0  0  0  0  0  0
   16.1732    7.4800   19.3246 C   0  0  0  0  0  0  0  0  0  0  0  0
   17.4953    7.0078   19.2604 C   0  0  0  0  0  0  0  0  0  0  0  0
   18.5623    7.8958   19.3954 C   0  0  0  0  0  0  0  0  0  0  0  0
   26.2687   16.8287   14.6244 H   0  0  0  0  0  0  0  0  0  0  0  0
   22.3812   16.9354   15.7263 H   0  0  0  0  0  0  0  0  0  0  0  0
   23.4019   18.0316   14.7077 H   0  0  0  0  0  0  0  0  0  0  0  0
   15.3450    5.9029   17.3445 H   0  0  0  0  0  0  0  0  0  0  0  0
   14.1371    6.9029   19.7188 H   0  0  0  0  0  0  0  0  0  0  0  0
   15.2652    5.5304   19.5267 H   0  0  0  0  0  0  0  0  0  0  0  0
   25.5914   13.8911   17.4991 H   0  0  0  0  0  0  0  0  0  0  0  0
   24.7822   16.0462   18.0238 H   0  0  0  0  0  0  0  0  0  0  0  0
   23.2700   15.4494   17.2656 H   0  0  0  0  0  0  0  0  0  0  0  0
   22.8464   15.0659   14.3278 H   0  0  0  0  0  0  0  0  0  0  0  0
   22.9644   16.3836   13.1035 H   0  0  0  0  0  0  0  0  0  0  0  0
   24.9738   17.6524   16.3980 H   0  0  0  0  0  0  0  0  0  0  0  0
   26.4912   14.1306   14.9541 H   0  0  0  0  0  0  0  0  0  0  0  0
   27.0504   15.2789   16.2354 H   0  0  0  0  0  0  0  0  0  0  0  0
   22.5858   11.6795   14.8858 H   0  0  0  0  0  0  0  0  0  0  0  0
   21.9624   11.4935   17.8584 H   0  0  0  0  0  0  0  0  0  0  0  0
   20.0768   11.5861   15.4126 H   0  0  0  0  0  0  0  0  0  0  0  0
   19.5686   11.5486   17.1171 H   0  0  0  0  0  0  0  0  0  0  0  0
   20.9788   13.4336   18.6375 H   0  0  0  0  0  0  0  0  0  0  0  0
   21.1378   15.8930   18.7626 H   0  0  0  0  0  0  0  0  0  0  0  0
   20.7202   17.2753   16.7473 H   0  0  0  0  0  0  0  0  0  0  0  0
   20.1357   16.1879   14.5975 H   0  0  0  0  0  0  0  0  0  0  0  0
   19.9791   13.7379   14.4504 H   0  0  0  0  0  0  0  0  0  0  0  0
   22.7868    9.3512   16.7930 H   0  0  0  0  0  0  0  0  0  0  0  0
   21.9340    9.5396   14.7563 H   0  0  0  0  0  0  0  0  0  0  0  0
   19.8658    8.8728   17.4996 H   0  0  0  0  0  0  0  0  0  0  0  0
   21.3175    7.9420   17.9029 H   0  0  0  0  0  0  0  0  0  0  0  0
   21.2933    8.8890   21.0017 H   0  0  0  0  0  0  0  0  0  0  0  0
   22.7394    9.7512   20.4156 H   0  0  0  0  0  0  0  0  0  0  0  0
   22.8273    7.9392   18.4935 H   0  0  0  0  0  0  0  0  0  0  0  0
   23.9167    8.0828   21.2121 H   0  0  0  0  0  0  0  0  0  0  0  0
   23.5879    6.3536   20.8153 H   0  0  0  0  0  0  0  0  0  0  0  0
   24.6507    7.3528   19.7487 H   0  0  0  0  0  0  0  0  0  0  0  0
   21.8849    5.7486   19.1368 H   0  0  0  0  0  0  0  0  0  0  0  0
   21.1140    6.4804   20.5970 H   0  0  0  0  0  0  0  0  0  0  0  0
   20.5893    6.9787   18.9402 H   0  0  0  0  0  0  0  0  0  0  0  0
   16.7881   10.7875   19.7755 H   0  0  0  0  0  0  0  0  0  0  0  0
   14.9149    9.2254   19.5411 H   0  0  0  0  0  0  0  0  0  0  0  0
   17.6950    5.9552   19.1022 H   0  0  0  0  0  0  0  0  0  0  0  0
   19.5766    7.5224   19.3372 H   0  0  0  0  0  0  0  0  0  0  0  0
  2  1  1  0
  5  4  1  0
  7  6  1  0
  6  8  1  0
  9  3  1  0
  9  2  1  0
 10  3  1  0
 10  1  1  0
 10  7  1  0
  1 11  1  0
 11  6  1  0
 12  8  1  0
 13 12  1  0
 14 12  2  0
 15 13  1  0
 15 16  1  0
 17 16  1  0
 18 17  2  0
 19 18  1  0
 20 19  2  0
 21 20  1  0
 22 17  1  0
 22 21  2  0
 23 15  1  0
 23 25  1  0
 26 24  1  0
 27 24  1  0
 27 23  1  0
 28 26  2  0
 29 24  1  0
 30 26  2  0
 31 29  1  0
 31 32  1  0
 33 31  1  0
 34 26  1  0
 35 34  2  0
 36 35  1  0
 37 36  2  0
 37  5  1  0
 38 37  1  0
 39 38  2  0
 39 34  1  0
  1 40  1  6
  3 41  1  0
  3 42  1  0
  4 43  1  0
  5 44  1  0
  5 45  1  0
  6 46  1  1
  7 47  1  0
  7 48  1  0
  9 49  1  0
  9 50  1  0
 10 51  1  1
 11 52  1  0
 11 53  1  0
 13 54  1  0
 15 55  1  1
 16 56  1  0
 16 57  1  0
 18 58  1  0
 19 59  1  0
 20 60  1  0
 21 61  1  0
 22 62  1  0
 23 63  1  6
 25 64  1  0
 27 65  1  0
 27 66  1  0
 29 67  1  0
 29 68  1  0
 31 69  1  0
 32 70  1  0
 32 71  1  0
 32 72  1  0
 33 73  1  0
 33 74  1  0
 33 75  1  0
 35 76  1  0
 36 77  1  0
 38 78  1  0
 39 79  1  0
M  END
