
     RDKit          3D

 99103  0  0  0  0  0  0  0  0999 V2000
   20.7548   25.2413   18.1842 N   0  0  0  0  0  0  0  0  0  0  0  0
   19.7465   25.3270   17.1271 C   0  0  1  0  0  0  0  0  0  0  0  0
   16.5540   23.7374   18.6825 C   0  0  2  0  0  0  0  0  0  0  0  0
   21.1864   26.3351   19.0091 C   0  0  0  0  0  0  0  0  0  0  0  0
   20.7971   27.5153   18.7675 O   0  0  0  0  0  0  0  0  0  0  0  0
   20.4060   25.1573   15.7484 C   0  0  0  0  0  0  0  0  0  0  0  0
   16.4256   23.7313   20.2315 C   0  0  0  0  0  0  0  0  0  0  0  0
   20.3227   26.4488   14.9912 C   0  0  0  0  0  0  0  0  0  0  0  0
   17.7620   23.5847   20.9368 C   0  0  0  0  0  0  0  0  0  0  0  0
   13.8515   18.5751   19.7852 C   0  0  0  0  0  0  0  0  0  0  0  0
   18.4245   22.3462   20.9655 C   0  0  0  0  0  0  0  0  0  0  0  0
   18.3551   24.6864   21.5770 C   0  0  0  0  0  0  0  0  0  0  0  0
   19.0749   26.8851   14.4729 N   0  0  0  0  0  0  0  0  0  0  0  0
   21.3382   27.1848   14.8663 O   0  0  0  0  0  0  0  0  0  0  0  0
   19.6486   22.2111   21.6308 C   0  0  0  0  0  0  0  0  0  0  0  0
   19.5771   24.5465   22.2428 C   0  0  0  0  0  0  0  0  0  0  0  0
   20.2249   23.3096   22.2724 C   0  0  0  0  0  0  0  0  0  0  0  0
   14.1466   23.1070   17.9605 C   0  0  0  0  0  0  0  0  0  0  0  0
   18.6809   24.2898   17.3898 C   0  0  0  0  0  0  0  0  0  0  0  0
   22.1457   26.8707   21.1917 N   0  0  0  0  0  0  0  0  0  0  0  0
   18.7595   23.1191   16.9159 O   0  0  0  0  0  0  0  0  0  0  0  0
   22.1259   26.0351   20.1136 C   0  0  0  0  0  0  0  0  0  0  0  0
   17.6291   24.6426   18.2867 N   0  0  0  0  0  0  0  0  0  0  0  0
   14.7741   25.3890   18.4940 O   0  0  0  0  0  0  0  0  0  0  0  0
   22.9831   24.9263   20.0931 C   0  0  0  0  0  0  0  0  0  0  0  0
   12.7640   21.1326   14.3364 C   0  0  2  0  0  0  0  0  0  0  0  0
   13.3393   19.4794   18.7510 N   0  0  0  0  0  0  0  0  0  0  0  0
   15.3783   19.9827   17.7059 O   0  0  0  0  0  0  0  0  0  0  0  0
   23.8333   24.6976   21.1848 C   0  0  0  0  0  0  0  0  0  0  0  0
   23.8238   25.5698   22.2865 C   0  0  0  0  0  0  0  0  0  0  0  0
   24.6525   25.3682   23.4023 C   0  0  0  0  0  0  0  0  0  0  0  0
   24.6106   26.2602   24.4809 C   0  0  0  0  0  0  0  0  0  0  0  0
   23.7458   27.3567   24.4527 C   0  0  0  0  0  0  0  0  0  0  0  0
   13.2880   22.5847   14.2934 C   0  0  2  0  0  0  0  0  0  0  0  0
   22.9195   27.5646   23.3456 C   0  0  0  0  0  0  0  0  0  0  0  0
   22.9539   26.6748   22.2639 C   0  0  0  0  0  0  0  0  0  0  0  0
   15.2589   24.1839   17.9509 C   0  0  1  0  0  0  0  0  0  0  0  0
   12.6550   18.0587   20.6040 C   0  0  0  0  0  0  0  0  0  0  0  0
   14.0784   22.3891   16.6590 N   0  0  0  0  0  0  0  0  0  0  0  0
   13.4426   21.0503   16.7794 C   0  0  1  0  0  0  0  0  0  0  0  0
   14.8044   19.3387   20.7188 C   0  0  0  0  0  0  0  0  0  0  0  0
   13.4680   20.3156   15.4285 C   0  0  0  0  0  0  0  0  0  0  0  0
   14.5759   17.3800   19.1401 C   0  0  0  0  0  0  0  0  0  0  0  0
   12.8700   20.4612   12.9491 C   0  0  0  0  0  0  0  0  0  0  0  0
   14.2626   20.6104   12.3181 C   0  0  0  0  0  0  0  0  0  0  0  0
   14.6617   22.0822   12.2406 C   0  0  0  0  0  0  0  0  0  0  0  0
   14.6799   22.6876   13.6435 C   0  0  0  0  0  0  0  0  0  0  0  0
   13.2857   23.2000   15.6981 C   0  0  0  0  0  0  0  0  0  0  0  0
   14.1346   20.1663   17.7799 C   0  0  0  0  0  0  0  0  0  0  0  0
   21.1913   24.3007   18.3153 H   0  0  0  0  0  0  0  0  0  0  0  0
   19.2575   26.3261   17.1503 H   0  0  0  0  0  0  0  0  0  0  0  0
   16.7984   22.7005   18.3611 H   0  0  0  0  0  0  0  0  0  0  0  0
   19.8810   24.3632   15.1743 H   0  0  0  0  0  0  0  0  0  0  0  0
   21.4710   24.8577   15.8637 H   0  0  0  0  0  0  0  0  0  0  0  0
   15.9313   24.6646   20.5767 H   0  0  0  0  0  0  0  0  0  0  0  0
   15.7707   22.8917   20.5470 H   0  0  0  0  0  0  0  0  0  0  0  0
   17.9881   21.4846   20.4753 H   0  0  0  0  0  0  0  0  0  0  0  0
   17.8717   25.6552   21.5611 H   0  0  0  0  0  0  0  0  0  0  0  0
   18.4403   26.2110   13.9902 H   0  0  0  0  0  0  0  0  0  0  0  0
   18.7723   27.8794   14.5739 H   0  0  0  0  0  0  0  0  0  0  0  0
   20.1507   21.2525   21.6477 H   0  0  0  0  0  0  0  0  0  0  0  0
   20.0270   25.4015   22.7308 H   0  0  0  0  0  0  0  0  0  0  0  0
   21.1729   23.2049   22.7842 H   0  0  0  0  0  0  0  0  0  0  0  0
   14.3318   22.4216   18.8102 H   0  0  0  0  0  0  0  0  0  0  0  0
   13.1647   23.5805   18.1922 H   0  0  0  0  0  0  0  0  0  0  0  0
   17.5880   25.6248   18.6442 H   0  0  0  0  0  0  0  0  0  0  0  0
   14.1867   25.8013   17.8074 H   0  0  0  0  0  0  0  0  0  0  0  0
   22.9950   24.2471   19.2501 H   0  0  0  0  0  0  0  0  0  0  0  0
   11.6824   21.1689   14.6002 H   0  0  0  0  0  0  0  0  0  0  0  0
   12.3066   19.6420   18.7100 H   0  0  0  0  0  0  0  0  0  0  0  0
   24.4940   23.8393   21.1703 H   0  0  0  0  0  0  0  0  0  0  0  0
   25.3291   24.5230   23.4389 H   0  0  0  0  0  0  0  0  0  0  0  0
   25.2510   26.1002   25.3386 H   0  0  0  0  0  0  0  0  0  0  0  0
   23.7166   28.0452   25.2873 H   0  0  0  0  0  0  0  0  0  0  0  0
   12.5833   23.1829   13.6715 H   0  0  0  0  0  0  0  0  0  0  0  0
   22.2515   28.4169   23.3287 H   0  0  0  0  0  0  0  0  0  0  0  0
   15.5630   24.3810   16.8992 H   0  0  0  0  0  0  0  0  0  0  0  0
   12.1014   18.9057   21.0644 H   0  0  0  0  0  0  0  0  0  0  0  0
   12.9959   17.3827   21.4181 H   0  0  0  0  0  0  0  0  0  0  0  0
   11.9526   17.4934   19.9537 H   0  0  0  0  0  0  0  0  0  0  0  0
   12.3784   21.1769   17.0868 H   0  0  0  0  0  0  0  0  0  0  0  0
   15.7199   19.6677   20.1852 H   0  0  0  0  0  0  0  0  0  0  0  0
   14.3009   20.2396   21.1312 H   0  0  0  0  0  0  0  0  0  0  0  0
   15.1216   18.6928   21.5659 H   0  0  0  0  0  0  0  0  0  0  0  0
   12.9542   19.3333   15.5309 H   0  0  0  0  0  0  0  0  0  0  0  0
   14.5224   20.1174   15.1405 H   0  0  0  0  0  0  0  0  0  0  0  0
   14.0931   16.4271   19.4464 H   0  0  0  0  0  0  0  0  0  0  0  0
   14.5621   17.4397   18.0330 H   0  0  0  0  0  0  0  0  0  0  0  0
   15.6405   17.3528   19.4584 H   0  0  0  0  0  0  0  0  0  0  0  0
   12.6167   19.3817   13.0295 H   0  0  0  0  0  0  0  0  0  0  0  0
   12.1193   20.9219   12.2695 H   0  0  0  0  0  0  0  0  0  0  0  0
   14.2389   20.1888   11.2902 H   0  0  0  0  0  0  0  0  0  0  0  0
   15.0190   20.0360   12.8942 H   0  0  0  0  0  0  0  0  0  0  0  0
   15.6758   22.1634   11.7935 H   0  0  0  0  0  0  0  0  0  0  0  0
   13.9518   22.6394   11.5901 H   0  0  0  0  0  0  0  0  0  0  0  0
   15.4467   22.1757   14.2656 H   0  0  0  0  0  0  0  0  0  0  0  0
   14.9733   23.7571   13.5631 H   0  0  0  0  0  0  0  0  0  0  0  0
   12.2296   23.2939   16.0434 H   0  0  0  0  0  0  0  0  0  0  0  0
   13.6740   24.2359   15.6178 H   0  0  0  0  0  0  0  0  0  0  0  0
  2  1  1  0
  4  1  1  0
  5  4  2  0
  2  6  1  0
  3  7  1  0
  8  6  1  0
  9  7  1  0
 11  9  2  0
 12  9  1  0
 13  8  1  0
 14  8  2  0
 15 11  1  0
 16 12  2  0
 17 15  2  0
 17 16  1  0
 19  2  1  0
 21 19  2  0
 22  4  1  0
 22 20  2  0
 23 19  1  0
 23  3  1  0
 25 22  1  0
 27 10  1  0
 29 25  2  0
 30 29  1  0
 31 30  2  0
 32 31  1  0
 33 32  2  0
 34 26  1  0
 35 33  1  0
 36 35  2  0
 36 30  1  0
 36 20  1  0
 37 24  1  0
 37 18  1  0
 37  3  1  0
 10 38  1  0
 39 18  1  0
 40 39  1  0
 41 10  1  0
 26 42  1  0
 42 40  1  0
 43 10  1  0
 44 26  1  0
 45 44  1  0
 46 45  1  0
 47 46  1  0
 34 47  1  0
 48 34  1  0
 48 39  1  0
 40 49  1  0
 49 28  2  0
 49 27  1  0
  1 50  1  0
  2 51  1  6
  3 52  1  6
  6 53  1  0
  6 54  1  0
  7 55  1  0
  7 56  1  0
 11 57  1  0
 12 58  1  0
 13 59  1  0
 13 60  1  0
 15 61  1  0
 16 62  1  0
 17 63  1  0
 18 64  1  0
 18 65  1  0
 23 66  1  0
 24 67  1  0
 25 68  1  0
 26 69  1  1
 27 70  1  0
 29 71  1  0
 31 72  1  0
 32 73  1  0
 33 74  1  0
 34 75  1  6
 35 76  1  0
 37 77  1  6
 38 78  1  0
 38 79  1  0
 38 80  1  0
 40 81  1  1
 41 82  1  0
 41 83  1  0
 41 84  1  0
 42 85  1  0
 42 86  1  0
 43 87  1  0
 43 88  1  0
 43 89  1  0
 44 90  1  0
 44 91  1  0
 45 92  1  0
 45 93  1  0
 46 94  1  0
 46 95  1  0
 47 96  1  0
 47 97  1  0
 48 98  1  0
 48 99  1  0
M  END
