
     RDKit          3D

 33 35  0  0  0  0  0  0  0  0999 V2000
   35.3198   11.7298   22.4686 Cl  0  0  0  0  0  0  0  0  0  0  0  0
   31.6380    8.4031   27.7818 N   0  0  0  0  0  0  0  0  0  0  0  0
   32.7439    7.2266   27.4081 S   0  0  0  0  0  0  0  0  0  0  0  0
   31.5722    9.2627   26.7709 N   0  0  0  0  0  0  0  0  0  0  0  0
   32.3893    8.9617   25.7208 C   0  0  0  0  0  0  0  0  0  0  0  0
   33.1702    7.8168   25.9093 C   0  0  0  0  0  0  0  0  0  0  0  0
   32.4443    9.8140   24.5261 C   0  0  0  0  0  0  0  0  0  0  0  0
   34.1239    7.2014   24.9909 C   0  0  0  0  0  0  0  0  0  0  0  0
   34.0874    5.8238   24.7746 C   0  0  0  0  0  0  0  0  0  0  0  0
   34.9916    5.2252   23.9043 C   0  0  0  0  0  0  0  0  0  0  0  0
   35.9283    6.0129   23.2122 C   0  0  0  0  0  0  0  0  0  0  0  0
   35.9583    7.3913   23.4241 C   0  0  0  0  0  0  0  0  0  0  0  0
   35.0682    7.9840   24.3189 C   0  0  0  0  0  0  0  0  0  0  0  0
   31.2711   10.1904   23.8387 C   0  0  0  0  0  0  0  0  0  0  0  0
   31.3527   10.9743   22.6848 C   0  0  0  0  0  0  0  0  0  0  0  0
   32.5936   11.4231   22.2348 C   0  0  0  0  0  0  0  0  0  0  0  0
   33.7555   11.1023   22.9554 C   0  0  0  0  0  0  0  0  0  0  0  0
   33.6845   10.2880   24.0832 C   0  0  0  0  0  0  0  0  0  0  0  0
   32.6555   12.1553   21.0531 O   0  0  0  0  0  0  0  0  0  0  0  0
   30.0107    9.7776   24.2559 O   0  0  0  0  0  0  0  0  0  0  0  0
   36.8479    5.4641   22.3196 O   0  0  0  0  0  0  0  0  0  0  0  0
   36.4647    4.8329   21.1051 C   0  0  0  0  0  0  0  0  0  0  0  0
   33.3614    5.2074   25.2916 H   0  0  0  0  0  0  0  0  0  0  0  0
   34.9424    4.1538   23.7680 H   0  0  0  0  0  0  0  0  0  0  0  0
   36.6793    8.0055   22.8995 H   0  0  0  0  0  0  0  0  0  0  0  0
   35.1038    9.0552   24.4758 H   0  0  0  0  0  0  0  0  0  0  0  0
   30.4535   11.2307   22.1383 H   0  0  0  0  0  0  0  0  0  0  0  0
   34.5910   10.0432   24.6241 H   0  0  0  0  0  0  0  0  0  0  0  0
   33.5172   12.5343   20.6818 H   0  0  0  0  0  0  0  0  0  0  0  0
   29.7732    9.5815   25.2186 H   0  0  0  0  0  0  0  0  0  0  0  0
   35.3599    4.8527   20.9934 H   0  0  0  0  0  0  0  0  0  0  0  0
   36.9500    5.3345   20.2409 H   0  0  0  0  0  0  0  0  0  0  0  0
   36.7956    3.7744   21.1287 H   0  0  0  0  0  0  0  0  0  0  0  0
  3  2  1  0
  4  2  2  0
  5  4  1  0
  6  5  2  0
  6  3  1  0
  7  5  1  0
  8  6  1  0
  9  8  2  0
 10  9  1  0
 11 10  2  0
 12 11  1  0
 13  8  1  0
 13 12  2  0
 14  7  2  0
 15 14  1  0
 16 15  2  0
 17 16  1  0
 17  1  1  0
 18  7  1  0
 18 17  2  0
 19 16  1  0
 20 14  1  0
 21 11  1  0
 22 21  1  0
  9 23  1  0
 10 24  1  0
 12 25  1  0
 13 26  1  0
 15 27  1  0
 18 28  1  0
 19 29  1  0
 20 30  1  0
 22 31  1  0
 22 32  1  0
 22 33  1  0
M  END
