
     RDKit          3D

 48 52  0  0  0  0  0  0  0  0999 V2000
   22.1670  -26.9434   18.4126 C   0  0  0  0  0  0  0  0  0  0  0  0
   22.3654  -27.0891   17.0555 C   0  0  0  0  0  0  0  0  0  0  0  0
   22.2922  -28.0440   19.2456 C   0  0  0  0  0  0  0  0  0  0  0  0
   23.1177  -33.9546   11.9626 C   0  0  0  0  0  0  0  0  0  0  0  0
   23.2808  -32.6583   11.5056 C   0  0  0  0  0  0  0  0  0  0  0  0
   22.7992  -29.4564   17.3447 C   0  0  0  0  0  0  0  0  0  0  0  0
   22.7956  -33.1362   14.2206 C   0  0  0  0  0  0  0  0  0  0  0  0
   25.1473  -24.4791   12.0364 C   0  0  0  0  0  0  0  0  0  0  0  0
   23.8137  -23.8428   11.6610 C   0  0  0  0  0  0  0  0  0  0  0  0
   22.6437  -35.5832   13.7704 C   0  0  0  0  0  0  0  0  0  0  0  0
   22.6503  -28.3460   16.5102 C   0  0  0  0  0  0  0  0  0  0  0  0
   22.8795  -34.2060   13.3187 C   0  0  0  0  0  0  0  0  0  0  0  0
   22.6302  -29.2996   18.7228 C   0  0  0  0  0  0  0  0  0  0  0  0
   23.0171  -29.5097   14.2518 C   0  0  0  0  0  0  0  0  0  0  0  0
   22.8501  -30.7948   14.6531 N   0  0  0  0  0  0  0  0  0  0  0  0
   22.8865  -28.3869   15.1232 N   0  0  0  0  0  0  0  0  0  0  0  0
   23.7286  -26.2320   10.9724 N   0  0  0  0  0  0  0  0  0  0  0  0
   22.4475  -35.8383   14.9881 O   0  0  0  0  0  0  0  0  0  0  0  0
   22.5607  -36.5990   12.8344 O   0  0  0  0  0  0  0  0  0  0  0  0
   22.9497  -31.8269   13.7712 C   0  0  0  0  0  0  0  0  0  0  0  0
   23.1990  -31.5775   12.3970 C   0  0  0  0  0  0  0  0  0  0  0  0
   23.8710  -25.2904   12.0825 C   0  0  0  0  0  0  0  0  0  0  0  0
   22.9111  -30.4214   19.6631 C   0  0  0  0  0  0  0  0  0  0  0  0
   23.7163  -28.5538   10.3222 N   0  0  0  0  0  0  0  0  0  0  0  0
   23.6163  -27.6053   11.2788 C   0  0  0  0  0  0  0  0  0  0  0  0
   23.3941  -27.9589   12.5479 N   0  0  0  0  0  0  0  0  0  0  0  0
   23.2627  -29.2367   12.9233 C   0  0  0  0  0  0  0  0  0  0  0  0
   23.3519  -30.2512   11.9744 C   0  0  0  0  0  0  0  0  0  0  0  0
   23.5922  -29.8648   10.6399 C   0  0  0  0  0  0  0  0  0  0  0  0
   24.0557  -30.4842   19.8375 F   0  0  0  0  0  0  0  0  0  0  0  0
   23.1433  -31.6167   19.0503 F   0  0  0  0  0  0  0  0  0  0  0  0
   22.9890  -30.0841   20.9788 F   0  0  0  0  0  0  0  0  0  0  0  0
   21.9298  -25.9717   18.8269 H   0  0  0  0  0  0  0  0  0  0  0  0
   22.2723  -26.2117   16.4264 H   0  0  0  0  0  0  0  0  0  0  0  0
   22.1652  -27.8978   20.3109 H   0  0  0  0  0  0  0  0  0  0  0  0
   23.1791  -34.7681   11.2500 H   0  0  0  0  0  0  0  0  0  0  0  0
   23.4655  -32.5447   10.4508 H   0  0  0  0  0  0  0  0  0  0  0  0
   23.1114  -30.4144   16.9703 H   0  0  0  0  0  0  0  0  0  0  0  0
   22.5938  -33.3154   15.2703 H   0  0  0  0  0  0  0  0  0  0  0  0
   25.8139  -24.6896   11.1726 H   0  0  0  0  0  0  0  0  0  0  0  0
   25.5314  -24.1829   13.0351 H   0  0  0  0  0  0  0  0  0  0  0  0
   23.7091  -23.6410   10.5736 H   0  0  0  0  0  0  0  0  0  0  0  0
   23.4237  -23.1467   12.4334 H   0  0  0  0  0  0  0  0  0  0  0  0
   22.9885  -27.4330   14.7109 H   0  0  0  0  0  0  0  0  0  0  0  0
   23.6740  -25.9127    9.9783 H   0  0  0  0  0  0  0  0  0  0  0  0
   21.9870  -37.4167   13.0032 H   0  0  0  0  0  0  0  0  0  0  0  0
   23.3773  -25.4962   13.0572 H   0  0  0  0  0  0  0  0  0  0  0  0
   23.6807  -30.5696    9.8315 H   0  0  0  0  0  0  0  0  0  0  0  0
  2  1  2  0
  3  1  1  0
  5  4  2  0
  9  8  1  0
 11  6  2  0
 11  2  1  0
 12 10  1  0
 12  7  2  0
 12  4  1  0
 13  6  1  0
 13  3  2  0
 15 14  2  0
 16 14  1  0
 16 11  1  0
 18 10  2  0
 19 10  1  0
 20  7  1  0
 20 15  1  0
 21  5  1  0
 21 20  2  0
 22 17  1  0
 22  9  1  0
 22  8  1  0
 23 13  1  0
 25 24  1  0
 25 17  1  0
 26 25  2  0
 27 26  1  0
 27 14  1  0
 28 27  2  0
 28 21  1  0
 29 24  2  0
 29 28  1  0
 23 30  1  0
 31 23  1  0
 32 23  1  0
  1 33  1  0
  2 34  1  0
  3 35  1  0
  4 36  1  0
  5 37  1  0
  6 38  1  0
  7 39  1  0
  8 40  1  0
  8 41  1  0
  9 42  1  0
  9 43  1  0
 16 44  1  0
 17 45  1  0
 19 46  1  0
 22 47  1  0
 29 48  1  0
M  END
