
     RDKit          3D

 46 49  0  0  0  0  0  0  0  0999 V2000
   44.4681   -0.9186   24.6643 Cl  0  0  0  0  0  0  0  0  0  0  0  0
   43.8946   -3.9324   29.6592 C   0  0  0  0  0  0  0  0  0  0  0  0
   43.5843   -1.5537   32.6159 C   0  0  0  0  0  0  0  0  0  0  0  0
   43.9119   -0.3425   32.0169 O   0  0  0  0  0  0  0  0  0  0  0  0
   43.3746   -1.5570   33.9913 C   0  0  0  0  0  0  0  0  0  0  0  0
   43.4852   -0.3363   34.6529 O   0  0  0  0  0  0  0  0  0  0  0  0
   43.0660   -2.7563   34.6515 C   0  0  0  0  0  0  0  0  0  0  0  0
   42.9617   -3.9405   33.9320 C   0  0  0  0  0  0  0  0  0  0  0  0
   43.1703   -3.9447   32.5568 C   0  0  0  0  0  0  0  0  0  0  0  0
   43.4872   -2.7528   31.8789 C   0  0  0  0  0  0  0  0  0  0  0  0
   44.4250   -3.4059   26.0150 C   0  0  0  0  0  0  0  0  0  0  0  0
   44.0751    1.3431   33.0867 C   0  0  0  0  0  0  0  0  0  0  0  0
   45.0721   -5.4761   24.7709 N   0  0  0  0  0  0  0  0  0  0  0  0
   44.3652   -1.9780   26.0698 C   0  0  0  0  0  0  0  0  0  0  0  0
   43.0714    0.9243   34.1470 C   0  0  0  0  0  0  0  0  0  0  0  0
   44.5900   -3.4730   23.6260 N   0  0  0  0  0  0  0  0  0  0  0  0
   44.1598   -1.3367   27.2892 C   0  0  0  0  0  0  0  0  0  0  0  0
   43.0985    1.9827   35.2527 C   0  0  0  0  0  0  0  0  0  0  0  0
   43.7843   -1.6786   29.6446 N   0  0  0  0  0  0  0  0  0  0  0  0
   44.0127   -2.1179   28.4152 C   0  0  0  0  0  0  0  0  0  0  0  0
   44.2782    2.8894   34.9529 C   0  0  0  0  0  0  0  0  0  0  0  0
   44.0710   -3.4759   28.3800 C   0  0  0  0  0  0  0  0  0  0  0  0
   44.5816    2.7151   33.4775 C   0  0  0  0  0  0  0  0  0  0  0  0
   44.2682   -4.1649   27.1970 C   0  0  0  0  0  0  0  0  0  0  0  0
   44.6749   -4.1064   24.7545 C   0  0  0  0  0  0  0  0  0  0  0  0
   43.7230   -2.7804   30.4276 C   0  0  0  0  0  0  0  0  0  0  0  0
   43.9051   -4.9661   29.9758 H   0  0  0  0  0  0  0  0  0  0  0  0
   42.9125   -2.8027   35.7182 H   0  0  0  0  0  0  0  0  0  0  0  0
   42.7194   -4.8633   34.4437 H   0  0  0  0  0  0  0  0  0  0  0  0
   43.0646   -4.8849   32.0351 H   0  0  0  0  0  0  0  0  0  0  0  0
   43.6052    1.3741   32.0787 H   0  0  0  0  0  0  0  0  0  0  0  0
   44.9354    0.6374   33.0429 H   0  0  0  0  0  0  0  0  0  0  0  0
   45.0822   -6.0397   23.8917 H   0  0  0  0  0  0  0  0  0  0  0  0
   45.3067   -5.9594   25.6662 H   0  0  0  0  0  0  0  0  0  0  0  0
   42.0730    0.8710   33.6652 H   0  0  0  0  0  0  0  0  0  0  0  0
   44.7662   -3.9708   22.7248 H   0  0  0  0  0  0  0  0  0  0  0  0
   44.4459   -2.4410   23.5741 H   0  0  0  0  0  0  0  0  0  0  0  0
   44.0982   -0.2571   27.3538 H   0  0  0  0  0  0  0  0  0  0  0  0
   42.1584    2.5760   35.2168 H   0  0  0  0  0  0  0  0  0  0  0  0
   43.1917    1.5293   36.2640 H   0  0  0  0  0  0  0  0  0  0  0  0
   43.5945   -0.6795   29.8588 H   0  0  0  0  0  0  0  0  0  0  0  0
   44.0497    3.9495   35.1980 H   0  0  0  0  0  0  0  0  0  0  0  0
   45.1571    2.5601   35.5503 H   0  0  0  0  0  0  0  0  0  0  0  0
   44.0327    3.4901   32.8977 H   0  0  0  0  0  0  0  0  0  0  0  0
   45.6699    2.8204   33.2752 H   0  0  0  0  0  0  0  0  0  0  0  0
   44.3273   -5.2464   27.1976 H   0  0  0  0  0  0  0  0  0  0  0  0
  4  3  1  0
  5  3  2  0
  6  5  1  0
  7  5  1  0
  8  7  2  0
  9  8  1  0
 10  9  2  0
 10  3  1  0
 14 11  1  0
 14  1  1  0
 15 12  1  0
 15  6  1  0
 17 14  2  0
 18 15  1  0
 20 17  1  0
 20 19  1  0
 21 18  1  0
 22 20  2  0
 22  2  1  0
 23 12  1  0
 23 21  1  0
 24 11  2  0
 24 22  1  0
 25 16  2  0
 25 13  1  0
 25 11  1  0
 26 19  1  0
 26 10  1  0
 26  2  2  0
  2 27  1  0
  7 28  1  0
  8 29  1  0
  9 30  1  0
 12 31  1  0
 12 32  1  0
 13 33  1  0
 13 34  1  0
 15 35  1  0
 16 36  1  0
 16 37  1  0
 17 38  1  0
 18 39  1  0
 18 40  1  0
 19 41  1  0
 21 42  1  0
 21 43  1  0
 23 44  1  0
 23 45  1  0
 24 46  1  0
M  CHG  2   4  -1  16   1
M  END
