
     RDKit          3D

 16 16  0  0  0  0  0  0  0  0999 V2000
   10.7103   48.6348   50.0429 C   0  0  1  0  0  0  0  0  0  0  0  0
   11.5558   49.1141   48.8836 C   0  0  0  0  0  0  0  0  0  0  0  0
   11.5115   48.1110   51.0839 O   0  0  0  0  0  0  0  0  0  0  0  0
    9.8587   49.7437   50.6346 C   0  0  0  0  0  0  0  0  0  0  0  0
   12.6340   49.7263   49.1026 O   0  0  0  0  0  0  0  0  0  0  0  0
   10.6602   50.2291   51.8083 C   0  0  0  0  0  0  0  0  0  0  0  0
   11.6755   49.1281   52.0525 C   0  0  0  0  0  0  0  0  0  0  0  0
   11.1524   48.8830   47.5727 O   0  0  0  0  0  0  0  0  0  0  0  0
   10.0456   47.8259   49.6688 H   0  0  0  0  0  0  0  0  0  0  0  0
    8.8941   49.3203   50.9933 H   0  0  0  0  0  0  0  0  0  0  0  0
    9.6458   50.5636   49.9132 H   0  0  0  0  0  0  0  0  0  0  0  0
   10.0122   50.3904   52.6977 H   0  0  0  0  0  0  0  0  0  0  0  0
   11.1794   51.1791   51.5521 H   0  0  0  0  0  0  0  0  0  0  0  0
   11.5292   48.6913   53.0634 H   0  0  0  0  0  0  0  0  0  0  0  0
   12.7094   49.5320   51.9908 H   0  0  0  0  0  0  0  0  0  0  0  0
   11.8200   48.6006   46.8651 H   0  0  0  0  0  0  0  0  0  0  0  0
  1  2  1  0
  3  1  1  0
  4  1  1  0
  5  2  2  0
  6  4  1  0
  7  3  1  0
  7  6  1  0
  8  2  1  0
  1  9  1  6
  4 10  1  0
  4 11  1  0
  6 12  1  0
  6 13  1  0
  7 14  1  0
  7 15  1  0
  8 16  1  0
M  END
