
     RDKit          3D

 31 31  0  0  0  0  0  0  0  0999 V2000
    8.4450   -1.7657    4.2162 Cl  0  0  0  0  0  0  0  0  0  0  0  0
    7.1002   -3.7004    2.0559 Cl  0  0  0  0  0  0  0  0  0  0  0  0
   14.1693   -4.2816    2.3142 P   0  0  0  0  0  0  0  0  0  0  0  0
   12.7562    0.7241   -0.8895 C   0  0  0  0  0  0  0  0  0  0  0  0
   13.7920    0.1980   -0.0728 N   0  0  0  0  0  0  0  0  0  0  0  0
   11.5708    0.7125   -0.4783 O   0  0  0  0  0  0  0  0  0  0  0  0
   13.4771   -0.5381    1.1489 C   0  0  0  0  0  0  0  0  0  0  0  0
   15.0840    0.3459   -0.4600 O   0  0  0  0  0  0  0  0  0  0  0  0
   13.5373   -2.0449    0.9050 C   0  0  0  0  0  0  0  0  0  0  0  0
   13.1292   -2.8357    2.1477 C   0  0  1  0  0  0  0  0  0  0  0  0
   11.6497   -3.1671    2.1629 C   0  0  0  0  0  0  0  0  0  0  0  0
   10.8275   -2.5065    3.0921 C   0  0  0  0  0  0  0  0  0  0  0  0
    9.4380   -2.6521    3.0571 C   0  0  0  0  0  0  0  0  0  0  0  0
    8.8504   -3.4941    2.1030 C   0  0  0  0  0  0  0  0  0  0  0  0
    9.6594   -4.1705    1.1785 C   0  0  0  0  0  0  0  0  0  0  0  0
   11.0499   -3.9987    1.1957 C   0  0  0  0  0  0  0  0  0  0  0  0
   13.4834   -5.4823    1.3672 O   0  0  0  0  0  0  0  0  0  0  0  0
   15.6740   -3.8733    1.7037 O   0  0  0  0  0  0  0  0  0  0  0  0
   14.2744   -4.7595    3.7412 O   0  0  0  0  0  0  0  0  0  0  0  0
   12.9779    1.1634   -1.8529 H   0  0  0  0  0  0  0  0  0  0  0  0
   14.1490   -0.2450    1.9848 H   0  0  0  0  0  0  0  0  0  0  0  0
   12.4455   -0.2722    1.4643 H   0  0  0  0  0  0  0  0  0  0  0  0
   15.0642    1.0505   -1.1575 H   0  0  0  0  0  0  0  0  0  0  0  0
   14.5718   -2.3062    0.5939 H   0  0  0  0  0  0  0  0  0  0  0  0
   12.8636   -2.2989    0.0576 H   0  0  0  0  0  0  0  0  0  0  0  0
   13.3790   -2.2116    3.0337 H   0  0  0  0  0  0  0  0  0  0  0  0
   11.2625   -1.8626    3.8455 H   0  0  0  0  0  0  0  0  0  0  0  0
    9.2091   -4.8111    0.4310 H   0  0  0  0  0  0  0  0  0  0  0  0
   11.6455   -4.4851    0.4361 H   0  0  0  0  0  0  0  0  0  0  0  0
   13.8119   -6.3321    1.7559 H   0  0  0  0  0  0  0  0  0  0  0  0
   15.6855   -4.2413    0.7841 H   0  0  0  0  0  0  0  0  0  0  0  0
  5  4  1  0
  6  4  2  0
  7  5  1  0
  8  5  1  0
  9  7  1  0
 10  3  1  0
 10  9  1  0
 11 10  1  0
 12 11  2  0
 13  1  1  0
 13 12  1  0
 14 13  2  0
 14  2  1  0
 15 14  1  0
 16 15  2  0
 16 11  1  0
 17  3  1  0
 18  3  1  0
 19  3  2  0
  4 20  1  0
  7 21  1  0
  7 22  1  0
  8 23  1  0
  9 24  1  0
  9 25  1  0
 10 26  1  1
 12 27  1  0
 15 28  1  0
 16 29  1  0
 17 30  1  0
 18 31  1  0
M  END
