
     RDKit          3D

 48 52  0  0  0  0  0  0  0  0999 V2000
   16.2412   57.0989  -26.4215 C   0  0  0  0  0  0  0  0  0  0  0  0
   16.6665   57.7170  -25.0676 C   0  0  0  0  0  0  0  0  0  0  0  0
   18.0639   58.4025  -25.1087 C   0  0  1  0  0  0  0  0  0  0  0  0
   19.1061   57.5568  -25.9168 C   0  0  1  0  0  0  0  0  0  0  0  0
   18.5471   57.4025  -27.3495 C   0  0  1  0  0  0  0  0  0  0  0  0
   19.4288   56.6736  -28.3761 C   0  0  2  0  0  0  0  0  0  0  0  0
   20.3978   57.5544  -29.0867 C   0  0  0  0  0  0  0  0  0  0  0  0
   18.4338   55.9260  -29.2935 C   0  0  2  0  0  0  0  0  0  0  0  0
   17.1229   55.7464  -28.4505 C   0  0  2  0  0  0  0  0  0  0  0  0
   17.4308   56.3840  -27.0968 C   0  0  2  0  0  0  0  0  0  0  0  0
   16.6142   54.2818  -28.4026 C   0  0  0  0  0  0  0  0  0  0  0  0
   16.6590   53.6230  -29.8132 C   0  0  0  0  0  0  0  0  0  0  0  0
   17.8499   54.1147  -30.6876 C   0  0  2  0  0  0  0  0  0  0  0  0
   18.9763   54.5679  -29.7671 C   0  0  0  0  0  0  0  0  0  0  0  0
   18.0575   56.5916  -30.6333 C   0  0  0  0  0  0  0  0  0  0  0  0
   17.5162   55.4133  -31.3813 C   0  0  0  0  0  0  0  0  0  0  0  0
   16.8252   55.5138  -32.5187 C   0  0  0  0  0  0  0  0  0  0  0  0
   20.5277   58.1424  -25.8261 C   0  0  0  0  0  0  0  0  0  0  0  0
   19.0169   56.1262  -25.4770 C   0  0  0  0  0  0  0  0  0  0  0  0
   17.9108   59.6855  -25.6698 O   0  0  0  0  0  0  0  0  0  0  0  0
   20.3627   58.8040  -28.9511 O   0  0  0  0  0  0  0  0  0  0  0  0
   21.3189   56.9724  -29.9357 O   0  0  0  0  0  0  0  0  0  0  0  0
   19.7220   55.5713  -24.5981 O   0  0  0  0  0  0  0  0  0  0  0  0
   18.0249   55.4674  -26.1816 O   0  0  0  0  0  0  0  0  0  0  0  0
   15.8552   57.9041  -27.0849 H   0  0  0  0  0  0  0  0  0  0  0  0
   15.4167   56.3736  -26.2508 H   0  0  0  0  0  0  0  0  0  0  0  0
   16.6811   56.9132  -24.2988 H   0  0  0  0  0  0  0  0  0  0  0  0
   15.8972   58.4495  -24.7399 H   0  0  0  0  0  0  0  0  0  0  0  0
   18.4127   58.4971  -24.0525 H   0  0  0  0  0  0  0  0  0  0  0  0
   18.1567   58.3535  -27.7805 H   0  0  0  0  0  0  0  0  0  0  0  0
   20.0386   55.9083  -27.8442 H   0  0  0  0  0  0  0  0  0  0  0  0
   16.2894   56.3336  -28.8995 H   0  0  0  0  0  0  0  0  0  0  0  0
   15.5739   54.2572  -28.0119 H   0  0  0  0  0  0  0  0  0  0  0  0
   17.2356   53.6770  -27.7081 H   0  0  0  0  0  0  0  0  0  0  0  0
   16.7392   52.5221  -29.6837 H   0  0  0  0  0  0  0  0  0  0  0  0
   15.6998   53.8156  -30.3420 H   0  0  0  0  0  0  0  0  0  0  0  0
   18.1939   53.3372  -31.4041 H   0  0  0  0  0  0  0  0  0  0  0  0
   19.9217   54.6985  -30.3430 H   0  0  0  0  0  0  0  0  0  0  0  0
   19.1809   53.8545  -28.9388 H   0  0  0  0  0  0  0  0  0  0  0  0
   17.3129   57.4106  -30.5268 H   0  0  0  0  0  0  0  0  0  0  0  0
   18.9438   56.9713  -31.1845 H   0  0  0  0  0  0  0  0  0  0  0  0
   16.6242   56.4857  -32.9581 H   0  0  0  0  0  0  0  0  0  0  0  0
   16.4551   54.6234  -33.0168 H   0  0  0  0  0  0  0  0  0  0  0  0
   20.5388   59.0552  -25.1941 H   0  0  0  0  0  0  0  0  0  0  0  0
   21.2224   57.3990  -25.3818 H   0  0  0  0  0  0  0  0  0  0  0  0
   20.8949   58.4181  -26.8374 H   0  0  0  0  0  0  0  0  0  0  0  0
   17.5826   60.2813  -24.9472 H   0  0  0  0  0  0  0  0  0  0  0  0
   22.2525   57.3540  -30.0296 H   0  0  0  0  0  0  0  0  0  0  0  0
  2  1  1  0
  3  2  1  0
  4  3  1  0
  5  4  1  0
  5  6  1  0
  6  7  1  0
  8  6  1  0
  9  8  1  0
 10  9  1  0
 10  5  1  0
 10  1  1  0
  9 11  1  0
 12 11  1  0
 13 12  1  0
 14 13  1  0
 14  8  1  0
  8 15  1  6
 16 13  1  0
 16 15  1  0
 17 16  2  0
  4 18  1  6
 19  4  1  0
  3 20  1  0
 21  7  2  0
 22  7  1  0
 23 19  2  0
 24 19  1  0
 10 24  1  1
  1 25  1  0
  1 26  1  0
  2 27  1  0
  2 28  1  0
  3 29  1  1
  5 30  1  6
  6 31  1  1
  9 32  1  6
 11 33  1  0
 11 34  1  0
 12 35  1  0
 12 36  1  0
 13 37  1  6
 14 38  1  0
 14 39  1  0
 15 40  1  0
 15 41  1  0
 17 42  1  0
 17 43  1  0
 18 44  1  0
 18 45  1  0
 18 46  1  0
 20 47  1  0
 22 48  1  0
M  END
