
     RDKit          3D

 49 51  0  0  0  0  0  0  0  0999 V2000
   36.5110   -8.8164   64.7343 P   0  0  2  0  0  0  0  0  0  0  0  0
   34.9680  -11.0978   65.3427 P   0  0  1  0  0  0  0  0  0  0  0  0
   34.5529  -12.2969   68.0090 P   0  0  0  0  0  0  0  0  0  0  0  0
   38.9861   -9.3346   64.4747 C   0  0  0  0  0  0  0  0  0  0  0  0
   37.9543   -8.5555   63.9177 O   0  0  0  0  0  0  0  0  0  0  0  0
   40.3073   -8.7660   63.9545 C   0  0  1  0  0  0  0  0  0  0  0  0
   40.3572   -8.9421   62.5485 O   0  0  0  0  0  0  0  0  0  0  0  0
   40.4415   -7.2661   64.2778 C   0  0  1  0  0  0  0  0  0  0  0  0
   41.7762   -6.9603   64.5928 O   0  0  0  0  0  0  0  0  0  0  0  0
   40.0380   -6.6221   62.9679 C   0  0  1  0  0  0  0  0  0  0  0  0
   40.6239   -5.3621   62.7494 O   0  0  0  0  0  0  0  0  0  0  0  0
   40.4706   -7.6713   61.9488 C   0  0  2  0  0  0  0  0  0  0  0  0
   40.4579   -7.1099   56.8312 N   0  0  0  0  0  0  0  0  0  0  0  0
   35.4325   -8.0755   63.9832 O   0  0  0  0  0  0  0  0  0  0  0  0
   34.4243  -12.1351   64.3903 O   0  0  0  0  0  0  0  0  0  0  0  0
   35.4327  -12.6942   69.1699 O   0  0  0  0  0  0  0  0  0  0  0  0
   41.5230   -7.0642   57.7008 C   0  0  0  0  0  0  0  0  0  0  0  0
   42.8338   -6.8464   57.1983 N   0  0  0  0  0  0  0  0  0  0  0  0
   36.6718   -8.2794   66.3207 O   0  0  0  0  0  0  0  0  0  0  0  0
   33.7996   -9.9564   65.7287 O   0  0  0  0  0  0  0  0  0  0  0  0
   33.5754  -11.0034   68.4419 O   0  0  0  0  0  0  0  0  0  0  0  0
   41.3344   -7.2271   59.0428 N   0  0  0  0  0  0  0  0  0  0  0  0
   35.6569  -11.8725   66.7377 N   0  0  0  0  0  0  0  0  0  0  0  0
   36.3306  -10.4781   64.5892 O   0  0  0  0  0  0  0  0  0  0  0  0
   33.6041  -13.6087   67.5695 O   0  0  0  0  0  0  0  0  0  0  0  0
   40.0656   -7.4256   59.4754 C   0  0  0  0  0  0  0  0  0  0  0  0
   38.9940   -7.4737   58.6408 C   0  0  0  0  0  0  0  0  0  0  0  0
   39.1801   -7.3110   57.2694 C   0  0  0  0  0  0  0  0  0  0  0  0
   38.2217   -7.3492   56.4487 O   0  0  0  0  0  0  0  0  0  0  0  0
   37.8619   -7.7043   59.3385 N   0  0  0  0  0  0  0  0  0  0  0  0
   38.3108   -7.7936   60.6193 C   0  0  0  0  0  0  0  0  0  0  0  0
   39.6546   -7.6175   60.7348 N   0  0  0  0  0  0  0  0  0  0  0  0
   38.9996   -9.2864   65.5883 H   0  0  0  0  0  0  0  0  0  0  0  0
   38.8903  -10.3939   64.1494 H   0  0  0  0  0  0  0  0  0  0  0  0
   41.1393   -9.3407   64.4181 H   0  0  0  0  0  0  0  0  0  0  0  0
   39.7675   -6.9298   65.1014 H   0  0  0  0  0  0  0  0  0  0  0  0
   42.0036   -6.1373   64.0863 H   0  0  0  0  0  0  0  0  0  0  0  0
   38.9354   -6.4903   62.9519 H   0  0  0  0  0  0  0  0  0  0  0  0
   41.2667   -5.4331   61.9968 H   0  0  0  0  0  0  0  0  0  0  0  0
   41.5418   -7.5243   61.6834 H   0  0  0  0  0  0  0  0  0  0  0  0
   40.6276   -6.9851   55.8072 H   0  0  0  0  0  0  0  0  0  0  0  0
   42.9736   -6.3602   56.2849 H   0  0  0  0  0  0  0  0  0  0  0  0
   43.6718   -7.1676   57.7319 H   0  0  0  0  0  0  0  0  0  0  0  0
   36.8112   -9.1032   66.8526 H   0  0  0  0  0  0  0  0  0  0  0  0
   33.3447   -9.7560   64.8721 H   0  0  0  0  0  0  0  0  0  0  0  0
   34.2058  -10.2686   68.6512 H   0  0  0  0  0  0  0  0  0  0  0  0
   36.1208  -12.7510   66.4144 H   0  0  0  0  0  0  0  0  0  0  0  0
   34.2481  -14.3092   67.2947 H   0  0  0  0  0  0  0  0  0  0  0  0
   37.6543   -7.9873   61.4547 H   0  0  0  0  0  0  0  0  0  0  0  0
  1  5  1  6
  5  4  1  0
  6  4  1  0
  7  6  1  0
  8  6  1  0
  8  9  1  0
 10  8  1  0
 10 11  1  0
 12 10  1  0
 12  7  1  0
 14  1  2  0
 15  2  2  0
 16  3  2  0
 17 13  1  0
 18 17  1  0
 19  1  1  0
  2 20  1  1
 21  3  1  0
 22 17  2  0
 23  2  1  0
 23  3  1  0
 24  2  1  0
 24  1  1  0
 25  3  1  0
 26 22  1  0
 27 26  2  0
 28 27  1  0
 28 13  1  0
 29 28  2  0
 30 27  1  0
 31 30  2  0
 32 31  1  0
 32 26  1  0
 12 32  1  0
  4 33  1  0
  4 34  1  0
  6 35  1  1
  8 36  1  1
  9 37  1  0
 10 38  1  1
 11 39  1  0
 12 40  1  6
 13 41  1  0
 18 42  1  0
 18 43  1  0
 19 44  1  0
 20 45  1  0
 21 46  1  0
 23 47  1  0
 25 48  1  0
 31 49  1  0
M  END
