
     RDKit          3D

 49 51  0  0  0  0  0  0  0  0999 V2000
   37.2899   -7.7650   63.7216 P   0  0  2  0  0  0  0  0  0  0  0  0
   35.8081   -9.0562   65.7447 P   0  0  1  0  0  0  0  0  0  0  0  0
   34.6146  -11.1588   67.4401 P   0  0  0  0  0  0  0  0  0  0  0  0
   39.6413   -8.7046   63.9444 C   0  0  0  0  0  0  0  0  0  0  0  0
   38.8169   -7.9841   63.0596 O   0  0  0  0  0  0  0  0  0  0  0  0
   41.0813   -8.5260   63.4606 C   0  0  1  0  0  0  0  0  0  0  0  0
   41.2099   -9.1245   62.1817 O   0  0  0  0  0  0  0  0  0  0  0  0
   41.4610   -7.0369   63.3587 C   0  0  1  0  0  0  0  0  0  0  0  0
   42.7998   -6.8552   63.7447 O   0  0  0  0  0  0  0  0  0  0  0  0
   41.2875   -6.7660   61.8789 C   0  0  1  0  0  0  0  0  0  0  0  0
   42.1091   -5.7345   61.3893 O   0  0  0  0  0  0  0  0  0  0  0  0
   41.6009   -8.1269   61.2655 C   0  0  2  0  0  0  0  0  0  0  0  0
   41.9841   -8.0070   56.1328 N   0  0  0  0  0  0  0  0  0  0  0  0
   36.2879   -7.9771   62.6137 O   0  0  0  0  0  0  0  0  0  0  0  0
   34.7105   -8.7129   64.7668 O   0  0  0  0  0  0  0  0  0  0  0  0
   35.4913  -11.5555   68.6035 O   0  0  0  0  0  0  0  0  0  0  0  0
   42.9378   -7.7008   57.0759 C   0  0  0  0  0  0  0  0  0  0  0  0
   44.2350   -7.2972   56.6605 N   0  0  0  0  0  0  0  0  0  0  0  0
   37.1944   -6.2219   64.3854 O   0  0  0  0  0  0  0  0  0  0  0  0
   35.7768   -8.0344   67.0757 O   0  0  0  0  0  0  0  0  0  0  0  0
   33.6389   -9.8625   67.8684 O   0  0  0  0  0  0  0  0  0  0  0  0
   42.6517   -7.7816   58.4080 N   0  0  0  0  0  0  0  0  0  0  0  0
   35.7220  -10.7392   66.1702 N   0  0  0  0  0  0  0  0  0  0  0  0
   37.2261   -9.0020   64.8532 O   0  0  0  0  0  0  0  0  0  0  0  0
   33.6641  -12.4695   67.0013 O   0  0  0  0  0  0  0  0  0  0  0  0
   41.3991   -8.1647   58.7554 C   0  0  0  0  0  0  0  0  0  0  0  0
   40.4361   -8.4715   57.8469 C   0  0  0  0  0  0  0  0  0  0  0  0
   40.7225   -8.3938   56.4854 C   0  0  0  0  0  0  0  0  0  0  0  0
   39.8675   -8.6697   55.5986 O   0  0  0  0  0  0  0  0  0  0  0  0
   39.2976   -8.8397   58.4714 N   0  0  0  0  0  0  0  0  0  0  0  0
   39.6303   -8.7405   59.7864 C   0  0  0  0  0  0  0  0  0  0  0  0
   40.9077   -8.3203   59.9908 N   0  0  0  0  0  0  0  0  0  0  0  0
   39.5747   -8.3246   64.9903 H   0  0  0  0  0  0  0  0  0  0  0  0
   39.3799   -9.7855   63.9241 H   0  0  0  0  0  0  0  0  0  0  0  0
   41.7548   -9.0523   64.1726 H   0  0  0  0  0  0  0  0  0  0  0  0
   40.7964   -6.3696   63.9577 H   0  0  0  0  0  0  0  0  0  0  0  0
   43.3371   -6.8639   62.9099 H   0  0  0  0  0  0  0  0  0  0  0  0
   40.2324   -6.4805   61.6827 H   0  0  0  0  0  0  0  0  0  0  0  0
   43.0558   -6.0280   61.4375 H   0  0  0  0  0  0  0  0  0  0  0  0
   42.6986   -8.2304   61.1110 H   0  0  0  0  0  0  0  0  0  0  0  0
   42.2276   -7.9403   55.1184 H   0  0  0  0  0  0  0  0  0  0  0  0
   44.9657   -7.0631   57.3688 H   0  0  0  0  0  0  0  0  0  0  0  0
   44.4753   -7.2290   55.6467 H   0  0  0  0  0  0  0  0  0  0  0  0
   37.4303   -5.6125   63.6412 H   0  0  0  0  0  0  0  0  0  0  0  0
   36.6798   -8.1075   67.4757 H   0  0  0  0  0  0  0  0  0  0  0  0
   34.0634   -9.0748   67.4435 H   0  0  0  0  0  0  0  0  0  0  0  0
   35.4381  -11.2673   65.3146 H   0  0  0  0  0  0  0  0  0  0  0  0
   34.3073  -13.1719   66.7293 H   0  0  0  0  0  0  0  0  0  0  0  0
   38.9390   -8.9768   60.5818 H   0  0  0  0  0  0  0  0  0  0  0  0
  1  5  1  6
  5  4  1  0
  6  4  1  0
  7  6  1  0
  8  6  1  0
  8  9  1  0
 10  8  1  0
 10 11  1  0
 12 10  1  0
 12  7  1  0
 14  1  2  0
 15  2  2  0
 16  3  2  0
 17 13  1  0
 18 17  1  0
 19  1  1  0
  2 20  1  1
 21  3  1  0
 22 17  2  0
 23  2  1  0
 23  3  1  0
 24  2  1  0
 24  1  1  0
 25  3  1  0
 26 22  1  0
 27 26  2  0
 28 27  1  0
 28 13  1  0
 29 28  2  0
 30 27  1  0
 31 30  2  0
 32 31  1  0
 32 26  1  0
 12 32  1  0
  4 33  1  0
  4 34  1  0
  6 35  1  1
  8 36  1  1
  9 37  1  0
 10 38  1  1
 11 39  1  0
 12 40  1  6
 13 41  1  0
 18 42  1  0
 18 43  1  0
 19 44  1  0
 20 45  1  0
 21 46  1  0
 23 47  1  0
 25 48  1  0
 31 49  1  0
M  END
