
     RDKit          3D

 33 35  0  0  0  0  0  0  0  0999 V2000
   15.2846   14.2220  -32.9903 C   0  0  0  0  0  0  0  0  0  0  0  0
   16.2301   13.4114  -33.6158 C   0  0  0  0  0  0  0  0  0  0  0  0
   15.3144   14.3902  -31.6046 C   0  0  0  0  0  0  0  0  0  0  0  0
   17.2257   12.9117  -31.4588 C   0  0  0  0  0  0  0  0  0  0  0  0
   17.4760   18.1460  -28.9100 C   0  0  0  0  0  0  0  0  0  0  0  0
   18.6290   17.1482  -28.9219 C   0  0  0  0  0  0  0  0  0  0  0  0
   16.3686   17.6399  -27.9882 C   0  0  0  0  0  0  0  0  0  0  0  0
   18.1373   15.7538  -29.2121 C   0  0  0  0  0  0  0  0  0  0  0  0
   14.0852   14.5721  -28.2335 C   0  0  0  0  0  0  0  0  0  0  0  0
   15.9023   16.2506  -28.3761 C   0  0  0  0  0  0  0  0  0  0  0  0
   16.7420   15.3446  -28.9344 C   0  0  0  0  0  0  0  0  0  0  0  0
   17.1991   12.7523  -32.8492 C   0  0  0  0  0  0  0  0  0  0  0  0
   16.2877   13.7442  -30.8246 C   0  0  0  0  0  0  0  0  0  0  0  0
   16.2838   13.9266  -29.3205 C   0  0  2  0  0  0  0  0  0  0  0  0
   14.5599   15.8962  -28.0486 N   0  0  0  0  0  0  0  0  0  0  0  0
   14.9431   13.5965  -28.8226 N   0  0  0  0  0  0  0  0  0  0  0  0
   18.9545   14.9088  -29.6533 O   0  0  0  0  0  0  0  0  0  0  0  0
   18.1383   11.9302  -33.4570 O   0  0  0  0  0  0  0  0  0  0  0  0
   12.5721   14.1724  -27.7395 S   0  0  0  0  0  0  0  0  0  0  0  0
   14.5310   14.7276  -33.5802 H   0  0  0  0  0  0  0  0  0  0  0  0
   16.2053   13.2889  -34.6911 H   0  0  0  0  0  0  0  0  0  0  0  0
   14.5768   15.0317  -31.1385 H   0  0  0  0  0  0  0  0  0  0  0  0
   17.9785   12.3937  -30.8776 H   0  0  0  0  0  0  0  0  0  0  0  0
   17.8395   19.1339  -28.5536 H   0  0  0  0  0  0  0  0  0  0  0  0
   17.0766   18.2705  -29.9410 H   0  0  0  0  0  0  0  0  0  0  0  0
   19.3676   17.4544  -29.6940 H   0  0  0  0  0  0  0  0  0  0  0  0
   19.1367   17.1513  -27.9332 H   0  0  0  0  0  0  0  0  0  0  0  0
   16.7342   17.6170  -26.9387 H   0  0  0  0  0  0  0  0  0  0  0  0
   15.5170   18.3520  -28.0389 H   0  0  0  0  0  0  0  0  0  0  0  0
   16.9953   13.2102  -28.8542 H   0  0  0  0  0  0  0  0  0  0  0  0
   13.9283   16.6089  -27.6173 H   0  0  0  0  0  0  0  0  0  0  0  0
   14.5975   12.6162  -28.9348 H   0  0  0  0  0  0  0  0  0  0  0  0
   18.6315   11.2135  -32.9373 H   0  0  0  0  0  0  0  0  0  0  0  0
  2  1  2  0
  3  1  1  0
  6  5  1  0
  7  5  1  0
  8  6  1  0
 10  7  1  0
 11 10  2  0
 11  8  1  0
 12  2  1  0
 12  4  2  0
 13  3  2  0
 13  4  1  0
 14 13  1  0
 14 11  1  0
 15 10  1  0
 15  9  1  0
 16  9  1  0
 16 14  1  0
 17  8  2  0
 18 12  1  0
 19  9  2  0
  1 20  1  0
  2 21  1  0
  3 22  1  0
  4 23  1  0
  5 24  1  0
  5 25  1  0
  6 26  1  0
  6 27  1  0
  7 28  1  0
  7 29  1  0
 14 30  1  1
 15 31  1  0
 16 32  1  0
 18 33  1  0
M  END
