
     RDKit          3D

 34 35  0  0  0  0  0  0  0  0999 V2000
  -14.2163   52.6773   53.7621 P   0  0  0  0  0  0  0  0  0  0  0  0
  -12.9797   51.9901   54.2968 O   0  0  0  0  0  0  0  0  0  0  0  0
  -13.8318   54.1851   53.1379 O   0  0  0  0  0  0  0  0  0  0  0  0
  -15.3755   52.8197   54.9641 O   0  0  0  0  0  0  0  0  0  0  0  0
  -14.3401   50.5351   52.3852 C   0  0  0  0  0  0  0  0  0  0  0  0
  -14.9028   51.8129   52.4957 O   0  0  0  0  0  0  0  0  0  0  0  0
  -15.1398   49.5793   53.2737 C   0  0  1  0  0  0  0  0  0  0  0  0
  -16.5269   49.8623   53.1886 O   0  0  0  0  0  0  0  0  0  0  0  0
  -14.8880   48.1426   52.8424 C   0  0  1  0  0  0  0  0  0  0  0  0
  -14.6712   47.2997   53.9510 O   0  0  0  0  0  0  0  0  0  0  0  0
  -16.1281   47.7936   52.0344 C   0  0  1  0  0  0  0  0  0  0  0  0
  -16.6452   46.5393   52.4003 O   0  0  0  0  0  0  0  0  0  0  0  0
  -17.1408   48.9166   52.3290 C   0  0  2  0  0  0  0  0  0  0  0  0
  -17.6581   49.5468   51.0738 N   0  0  0  0  0  0  0  0  0  0  0  0
  -18.4347   48.8120   50.1973 C   0  0  0  0  0  0  0  0  0  0  0  0
  -18.7307   47.6141   50.4461 O   0  0  0  0  0  0  0  0  0  0  0  0
  -18.9026   49.3612   49.0450 N   0  0  0  0  0  0  0  0  0  0  0  0
  -18.6377   50.6448   48.7204 C   0  0  0  0  0  0  0  0  0  0  0  0
  -19.0837   51.1168   47.6402 O   0  0  0  0  0  0  0  0  0  0  0  0
  -17.8860   51.4324   49.5905 C   0  0  0  0  0  0  0  0  0  0  0  0
  -17.4191   50.8664   50.7794 C   0  0  0  0  0  0  0  0  0  0  0  0
  -13.2136   53.9983   52.3869 H   0  0  0  0  0  0  0  0  0  0  0  0
  -16.1548   53.2341   54.5149 H   0  0  0  0  0  0  0  0  0  0  0  0
  -13.2657   50.4585   52.6794 H   0  0  0  0  0  0  0  0  0  0  0  0
  -14.4207   50.2283   51.3191 H   0  0  0  0  0  0  0  0  0  0  0  0
  -14.8133   49.7347   54.3260 H   0  0  0  0  0  0  0  0  0  0  0  0
  -13.9887   48.0526   52.1914 H   0  0  0  0  0  0  0  0  0  0  0  0
  -13.9719   47.7200   54.5182 H   0  0  0  0  0  0  0  0  0  0  0  0
  -15.8667   47.7960   50.9492 H   0  0  0  0  0  0  0  0  0  0  0  0
  -17.5446   46.7057   52.7865 H   0  0  0  0  0  0  0  0  0  0  0  0
  -18.0073   48.4932   52.8842 H   0  0  0  0  0  0  0  0  0  0  0  0
  -19.4799   48.7782   48.3958 H   0  0  0  0  0  0  0  0  0  0  0  0
  -17.6883   52.4732   49.3654 H   0  0  0  0  0  0  0  0  0  0  0  0
  -16.9207   51.5168   51.4730 H   0  0  0  0  0  0  0  0  0  0  0  0
  2  1  2  0
  3  1  1  0
  4  1  1  0
  6  5  1  0
  6  1  1  0
  7  5  1  0
  8  7  1  0
  9  7  1  0
  9 10  1  0
 11  9  1  0
 11 12  1  0
 13 11  1  0
 13  8  1  0
 13 14  1  0
 15 14  1  0
 16 15  2  0
 17 15  1  0
 18 17  1  0
 19 18  2  0
 20 18  1  0
 21 20  2  0
 21 14  1  0
  3 22  1  0
  4 23  1  0
  5 24  1  0
  5 25  1  0
  7 26  1  1
  9 27  1  6
 10 28  1  0
 11 29  1  6
 12 30  1  0
 13 31  1  1
 17 32  1  0
 20 33  1  0
 21 34  1  0
M  END
