
     RDKit          3D

 47 47  0  0  0  0  0  0  0  0999 V2000
   28.9112   18.1986   43.8547 C   0  0  0  0  0  0  0  0  0  0  0  0
   30.0600   17.9851   44.7773 C   0  0  0  0  0  0  0  0  0  0  0  0
   28.0939   17.2242   43.3561 C   0  0  0  0  0  0  0  0  0  0  0  0
   28.2232   15.7147   43.5181 C   0  0  0  0  0  0  0  0  0  0  0  0
   25.4204   14.1440   45.0340 O   0  0  0  0  0  0  0  0  0  0  0  0
   25.5555   16.7215   44.8563 O   0  0  0  0  0  0  0  0  0  0  0  0
   26.2329   15.3873   47.1670 O   0  0  0  0  0  0  0  0  0  0  0  0
   27.9551   15.1528   44.9281 C   0  0  0  0  0  0  0  0  0  0  0  0
   24.2510   19.6792   41.6007 P   0  0  0  0  0  0  0  0  0  0  0  0
   26.2391   15.3289   45.4899 P   0  0  0  0  0  0  0  0  0  0  0  0
   27.9691   24.4336   41.7580 N   0  0  0  0  0  0  0  0  0  0  0  0
   28.9898   23.9331   42.5013 C   0  0  0  0  0  0  0  0  0  0  0  0
   29.9856   24.9078   43.0758 C   0  0  0  0  0  0  0  0  0  0  0  0
   30.5264   16.8471   45.0020 O   0  0  0  0  0  0  0  0  0  0  0  0
   29.0825   22.5320   42.7213 C   0  0  0  0  0  0  0  0  0  0  0  0
   30.1294   22.0290   43.4921 O   0  0  0  0  0  0  0  0  0  0  0  0
   30.7108   19.0791   45.3421 O   0  0  0  0  0  0  0  0  0  0  0  0
   28.0916   21.6612   42.1549 C   0  0  0  0  0  0  0  0  0  0  0  0
   28.0260   20.1198   42.3297 C   0  0  0  0  0  0  0  0  0  0  0  0
   28.8593   19.5485   43.3636 N   0  0  0  0  0  0  0  0  0  0  0  0
   27.0787   22.2511   41.3394 C   0  0  0  0  0  0  0  0  0  0  0  0
   25.9347   21.4401   40.7672 C   0  0  0  0  0  0  0  0  0  0  0  0
   27.0292   23.6429   41.1900 C   0  0  0  0  0  0  0  0  0  0  0  0
   25.1744   18.4918   41.4551 O   0  0  0  0  0  0  0  0  0  0  0  0
   23.2521   19.8249   40.2548 O   0  0  0  0  0  0  0  0  0  0  0  0
   23.2738   19.4871   42.9471 O   0  0  0  0  0  0  0  0  0  0  0  0
   25.1236   21.1034   41.8626 O   0  0  0  0  0  0  0  0  0  0  0  0
   27.3208   17.5278   42.6642 H   0  0  0  0  0  0  0  0  0  0  0  0
   27.5238   15.2225   42.8083 H   0  0  0  0  0  0  0  0  0  0  0  0
   29.2448   15.4139   43.2029 H   0  0  0  0  0  0  0  0  0  0  0  0
   25.9739   17.4683   45.3538 H   0  0  0  0  0  0  0  0  0  0  0  0
   26.5080   16.3093   47.3991 H   0  0  0  0  0  0  0  0  0  0  0  0
   28.1938   14.0683   44.9119 H   0  0  0  0  0  0  0  0  0  0  0  0
   28.6067   15.6143   45.6908 H   0  0  0  0  0  0  0  0  0  0  0  0
   31.0024   24.6799   42.6926 H   0  0  0  0  0  0  0  0  0  0  0  0
   29.9782   24.8466   44.1843 H   0  0  0  0  0  0  0  0  0  0  0  0
   29.7286   25.9481   42.7827 H   0  0  0  0  0  0  0  0  0  0  0  0
   30.8459   22.6064   43.9125 H   0  0  0  0  0  0  0  0  0  0  0  0
   30.3135   20.0100   45.3668 H   0  0  0  0  0  0  0  0  0  0  0  0
   26.9890   19.8485   42.5926 H   0  0  0  0  0  0  0  0  0  0  0  0
   28.2846   19.6401   41.3609 H   0  0  0  0  0  0  0  0  0  0  0  0
   29.8360   19.8612   43.1971 H   0  0  0  0  0  0  0  0  0  0  0  0
   25.3422   22.0408   40.0428 H   0  0  0  0  0  0  0  0  0  0  0  0
   26.3290   20.5579   40.2149 H   0  0  0  0  0  0  0  0  0  0  0  0
   26.2349   24.1069   40.6192 H   0  0  0  0  0  0  0  0  0  0  0  0
   22.7858   18.9537   40.1884 H   0  0  0  0  0  0  0  0  0  0  0  0
   23.5608   18.6290   43.3499 H   0  0  0  0  0  0  0  0  0  0  0  0
  2  1  1  0
  3  1  2  3
  4  3  1  0
  8  4  1  0
 10  7  1  0
 10  6  1  0
 10  5  2  0
 10  8  1  0
 12 11  2  0
 13 12  1  0
 14  2  2  0
 15 12  1  0
 16 15  1  0
 17  2  1  0
 18 15  2  0
 19 18  1  0
 20 19  1  0
 20  1  1  0
 21 18  1  0
 22 21  1  0
 23 21  2  0
 23 11  1  0
 24  9  2  0
 25  9  1  0
 26  9  1  0
 27 22  1  0
 27  9  1  0
  3 28  1  0
  4 29  1  0
  4 30  1  0
  6 31  1  0
  7 32  1  0
  8 33  1  0
  8 34  1  0
 13 35  1  0
 13 36  1  0
 13 37  1  0
 16 38  1  0
 17 39  1  0
 19 40  1  0
 19 41  1  0
 20 42  1  0
 22 43  1  0
 22 44  1  0
 23 45  1  0
 25 46  1  0
 26 47  1  0
M  END
