
     RDKit          3D

 47 47  0  0  0  0  0  0  0  0999 V2000
   46.3753   41.5681   55.3924 C   0  0  0  0  0  0  0  0  0  0  0  0
   45.6633   41.4634   54.0893 C   0  0  0  0  0  0  0  0  0  0  0  0
   47.4305   42.3911   55.6632 C   0  0  0  0  0  0  0  0  0  0  0  0
   48.1870   43.3306   54.7411 C   0  0  0  0  0  0  0  0  0  0  0  0
   45.4202   46.0612   55.4391 O   0  0  0  0  0  0  0  0  0  0  0  0
   47.8001   47.0551   55.6952 O   0  0  0  0  0  0  0  0  0  0  0  0
   47.0150   44.8225   57.0880 O   0  0  0  0  0  0  0  0  0  0  0  0
   47.4161   44.5879   54.2914 C   0  0  0  0  0  0  0  0  0  0  0  0
   46.3812   42.2087   63.0082 P   0  0  0  0  0  0  0  0  0  0  0  0
   46.8647   45.6665   55.6452 P   0  0  0  0  0  0  0  0  0  0  0  0
   45.2241   37.4857   60.4917 N   0  0  0  0  0  0  0  0  0  0  0  0
   45.3607   37.1842   59.1743 C   0  0  0  0  0  0  0  0  0  0  0  0
   45.1572   35.7577   58.7442 C   0  0  0  0  0  0  0  0  0  0  0  0
   44.6796   40.7029   53.9244 O   0  0  0  0  0  0  0  0  0  0  0  0
   45.7296   38.1922   58.2505 C   0  0  0  0  0  0  0  0  0  0  0  0
   45.9162   37.8310   56.9156 O   0  0  0  0  0  0  0  0  0  0  0  0
   46.0814   42.2507   53.0264 O   0  0  0  0  0  0  0  0  0  0  0  0
   45.9219   39.5314   58.7033 C   0  0  0  0  0  0  0  0  0  0  0  0
   46.4700   40.6374   57.7724 C   0  0  0  0  0  0  0  0  0  0  0  0
   45.8277   40.7728   56.4625 N   0  0  0  0  0  0  0  0  0  0  0  0
   45.7870   39.7831   60.1103 C   0  0  0  0  0  0  0  0  0  0  0  0
   45.8937   41.1660   60.7148 C   0  0  0  0  0  0  0  0  0  0  0  0
   45.4159   38.7371   60.9689 C   0  0  0  0  0  0  0  0  0  0  0  0
   45.2881   41.7344   63.9347 O   0  0  0  0  0  0  0  0  0  0  0  0
   45.9520   43.6642   62.2828 O   0  0  0  0  0  0  0  0  0  0  0  0
   47.7933   42.4607   63.8731 O   0  0  0  0  0  0  0  0  0  0  0  0
   46.7234   41.0352   61.8414 O   0  0  0  0  0  0  0  0  0  0  0  0
   47.8126   42.3866   56.6740 H   0  0  0  0  0  0  0  0  0  0  0  0
   49.1145   43.6604   55.2576 H   0  0  0  0  0  0  0  0  0  0  0  0
   48.5110   42.7632   53.8430 H   0  0  0  0  0  0  0  0  0  0  0  0
   47.4763   47.5529   56.4878 H   0  0  0  0  0  0  0  0  0  0  0  0
   46.7313   45.4623   57.7887 H   0  0  0  0  0  0  0  0  0  0  0  0
   46.5296   44.3298   53.6851 H   0  0  0  0  0  0  0  0  0  0  0  0
   48.0892   45.1842   53.6394 H   0  0  0  0  0  0  0  0  0  0  0  0
   46.1203   35.3340   58.3902 H   0  0  0  0  0  0  0  0  0  0  0  0
   44.4126   35.7145   57.9217 H   0  0  0  0  0  0  0  0  0  0  0  0
   44.7848   35.1414   59.5901 H   0  0  0  0  0  0  0  0  0  0  0  0
   46.4393   38.3906   56.2581 H   0  0  0  0  0  0  0  0  0  0  0  0
   45.4432   42.8897   52.5672 H   0  0  0  0  0  0  0  0  0  0  0  0
   46.4170   41.6226   58.2508 H   0  0  0  0  0  0  0  0  0  0  0  0
   47.5487   40.4237   57.6146 H   0  0  0  0  0  0  0  0  0  0  0  0
   44.9593   40.2235   56.2716 H   0  0  0  0  0  0  0  0  0  0  0  0
   46.3666   41.8780   60.0032 H   0  0  0  0  0  0  0  0  0  0  0  0
   44.8812   41.5746   60.9286 H   0  0  0  0  0  0  0  0  0  0  0  0
   45.2753   38.9144   62.0276 H   0  0  0  0  0  0  0  0  0  0  0  0
   46.7068   43.8761   61.6776 H   0  0  0  0  0  0  0  0  0  0  0  0
   47.5027   42.5328   64.8173 H   0  0  0  0  0  0  0  0  0  0  0  0
  2  1  1  0
  3  1  2  3
  4  3  1  0
  8  4  1  0
 10  8  1  0
 10  7  1  0
 10  6  1  0
 10  5  2  0
 12 11  2  0
 13 12  1  0
 14  2  2  0
 15 12  1  0
 16 15  1  0
 17  2  1  0
 18 15  2  0
 19 18  1  0
 20 19  1  0
 20  1  1  0
 21 18  1  0
 22 21  1  0
 23 11  1  0
 23 21  2  0
 24  9  2  0
 25  9  1  0
 26  9  1  0
 27 22  1  0
 27  9  1  0
  3 28  1  0
  4 29  1  0
  4 30  1  0
  6 31  1  0
  7 32  1  0
  8 33  1  0
  8 34  1  0
 13 35  1  0
 13 36  1  0
 13 37  1  0
 16 38  1  0
 17 39  1  0
 19 40  1  0
 19 41  1  0
 20 42  1  0
 22 43  1  0
 22 44  1  0
 23 45  1  0
 25 46  1  0
 26 47  1  0
M  END
