
     RDKit          3D

 47 47  0  0  0  0  0  0  0  0999 V2000
   28.6166   17.9346   42.9610 C   0  0  0  0  0  0  0  0  0  0  0  0
   30.0051   17.6693   43.4284 C   0  0  0  0  0  0  0  0  0  0  0  0
   27.5879   17.0359   42.9588 C   0  0  0  0  0  0  0  0  0  0  0  0
   27.6334   15.5538   43.3096 C   0  0  0  0  0  0  0  0  0  0  0  0
   27.1441   13.6022   46.8777 O   0  0  0  0  0  0  0  0  0  0  0  0
   27.1351   12.4466   44.5629 O   0  0  0  0  0  0  0  0  0  0  0  0
   25.2269   14.3013   45.2680 O   0  0  0  0  0  0  0  0  0  0  0  0
   27.8696   15.2091   44.7931 C   0  0  0  0  0  0  0  0  0  0  0  0
   22.8103   20.2544   41.9345 P   0  0  0  0  0  0  0  0  0  0  0  0
   26.8375   13.8553   45.4202 P   0  0  0  0  0  0  0  0  0  0  0  0
   27.1002   24.0806   41.0670 N   0  0  0  0  0  0  0  0  0  0  0  0
   28.3015   23.5977   41.4773 C   0  0  0  0  0  0  0  0  0  0  0  0
   29.4044   24.5896   41.7447 C   0  0  0  0  0  0  0  0  0  0  0  0
   30.7185   18.5663   43.9278 O   0  0  0  0  0  0  0  0  0  0  0  0
   28.4785   22.1981   41.6500 C   0  0  0  0  0  0  0  0  0  0  0  0
   29.7130   21.7131   42.0791 O   0  0  0  0  0  0  0  0  0  0  0  0
   30.5097   16.3716   43.4071 O   0  0  0  0  0  0  0  0  0  0  0  0
   27.3809   21.3101   41.3897 C   0  0  0  0  0  0  0  0  0  0  0  0
   27.3957   19.7673   41.5642 C   0  0  0  0  0  0  0  0  0  0  0  0
   28.5036   19.2094   42.3066 N   0  0  0  0  0  0  0  0  0  0  0  0
   26.1644   21.8827   40.9087 C   0  0  0  0  0  0  0  0  0  0  0  0
   24.9177   21.0516   40.6879 C   0  0  0  0  0  0  0  0  0  0  0  0
   26.0495   23.2736   40.7909 C   0  0  0  0  0  0  0  0  0  0  0  0
   22.6746   18.9177   41.2428 O   0  0  0  0  0  0  0  0  0  0  0  0
   21.8315   21.4077   41.1979 O   0  0  0  0  0  0  0  0  0  0  0  0
   22.3364   20.1254   43.5355 O   0  0  0  0  0  0  0  0  0  0  0  0
   24.4221   20.7635   41.9695 O   0  0  0  0  0  0  0  0  0  0  0  0
   26.6409   17.3631   42.5528 H   0  0  0  0  0  0  0  0  0  0  0  0
   26.6765   15.0864   42.9915 H   0  0  0  0  0  0  0  0  0  0  0  0
   28.4285   15.0732   42.7010 H   0  0  0  0  0  0  0  0  0  0  0  0
   26.6903   12.5739   43.6875 H   0  0  0  0  0  0  0  0  0  0  0  0
   25.0771   14.4184   44.2966 H   0  0  0  0  0  0  0  0  0  0  0  0
   28.9311   14.9020   44.9050 H   0  0  0  0  0  0  0  0  0  0  0  0
   27.7158   16.0813   45.4527 H   0  0  0  0  0  0  0  0  0  0  0  0
   29.5548   24.7021   42.8389 H   0  0  0  0  0  0  0  0  0  0  0  0
   29.1461   25.5721   41.2969 H   0  0  0  0  0  0  0  0  0  0  0  0
   30.3597   24.2427   41.2962 H   0  0  0  0  0  0  0  0  0  0  0  0
   29.8545   20.7805   42.4448 H   0  0  0  0  0  0  0  0  0  0  0  0
   29.9370   15.5554   43.2316 H   0  0  0  0  0  0  0  0  0  0  0  0
   26.4850   19.4760   42.1153 H   0  0  0  0  0  0  0  0  0  0  0  0
   27.3694   19.2949   40.5584 H   0  0  0  0  0  0  0  0  0  0  0  0
   29.3685   19.3557   41.7497 H   0  0  0  0  0  0  0  0  0  0  0  0
   24.1523   21.6230   40.1184 H   0  0  0  0  0  0  0  0  0  0  0  0
   25.1621   20.1459   40.0889 H   0  0  0  0  0  0  0  0  0  0  0  0
   25.1156   23.7240   40.4794 H   0  0  0  0  0  0  0  0  0  0  0  0
   20.9384   20.9835   41.1392 H   0  0  0  0  0  0  0  0  0  0  0  0
   21.4053   20.4627   43.5536 H   0  0  0  0  0  0  0  0  0  0  0  0
  2  1  1  0
  3  1  2  3
  4  3  1  0
  8  4  1  0
 10  7  1  0
 10  6  1  0
 10  5  2  0
 10  8  1  0
 12 11  2  0
 13 12  1  0
 14  2  2  0
 15 12  1  0
 16 15  1  0
 17  2  1  0
 18 15  2  0
 19 18  1  0
 20 19  1  0
 20  1  1  0
 21 18  1  0
 22 21  1  0
 23 21  2  0
 23 11  1  0
 24  9  2  0
 25  9  1  0
 26  9  1  0
 27 22  1  0
 27  9  1  0
  3 28  1  0
  4 29  1  0
  4 30  1  0
  6 31  1  0
  7 32  1  0
  8 33  1  0
  8 34  1  0
 13 35  1  0
 13 36  1  0
 13 37  1  0
 16 38  1  0
 17 39  1  0
 19 40  1  0
 19 41  1  0
 20 42  1  0
 22 43  1  0
 22 44  1  0
 23 45  1  0
 25 46  1  0
 26 47  1  0
M  END
