
     RDKit          3D

 49 51  0  0  0  0  0  0  0  0999 V2000
   25.2629   14.9844   15.1312 P   0  0  2  0  0  0  0  0  0  0  0  0
   25.0234   12.2443   14.6491 P   0  0  1  0  0  0  0  0  0  0  0  0
   23.7540    9.7622   13.8515 P   0  0  0  0  0  0  0  0  0  0  0  0
   25.3606   16.3189   12.9774 C   0  0  0  0  0  0  0  0  0  0  0  0
   25.8984   16.2742   14.2761 O   0  0  0  0  0  0  0  0  0  0  0  0
   26.2175   17.3050   12.1849 C   0  0  1  0  0  0  0  0  0  0  0  0
   25.7104   18.6136   12.3827 O   0  0  0  0  0  0  0  0  0  0  0  0
   27.6838   17.2551   12.6491 C   0  0  1  0  0  0  0  0  0  0  0  0
   28.5434   17.3994   11.5461 O   0  0  0  0  0  0  0  0  0  0  0  0
   27.7739   18.4540   13.5738 C   0  0  1  0  0  0  0  0  0  0  0  0
   29.0671   19.0091   13.6230 O   0  0  0  0  0  0  0  0  0  0  0  0
   26.7138   19.3957   12.9913 C   0  0  2  0  0  0  0  0  0  0  0  0
   25.5756   24.2478   14.2837 N   0  0  0  0  0  0  0  0  0  0  0  0
   23.8576   15.3624   15.5231 O   0  0  0  0  0  0  0  0  0  0  0  0
   24.3567   12.5235   15.9708 O   0  0  0  0  0  0  0  0  0  0  0  0
   24.2029    9.0836   12.5826 O   0  0  0  0  0  0  0  0  0  0  0  0
   26.2740   23.7809   13.1963 C   0  0  0  0  0  0  0  0  0  0  0  0
   26.7800   24.7001   12.2396 N   0  0  0  0  0  0  0  0  0  0  0  0
   26.2121   14.6978   16.4874 O   0  0  0  0  0  0  0  0  0  0  0  0
   26.4497   11.3853   14.8666 O   0  0  0  0  0  0  0  0  0  0  0  0
   24.7146    9.2837   15.1428 O   0  0  0  0  0  0  0  0  0  0  0  0
   26.4920   22.4437   13.0294 N   0  0  0  0  0  0  0  0  0  0  0  0
   23.9105   11.4624   13.5703 N   0  0  0  0  0  0  0  0  0  0  0  0
   25.2494   13.7584   13.9890 O   0  0  0  0  0  0  0  0  0  0  0  0
   22.1490    9.3727   14.1297 O   0  0  0  0  0  0  0  0  0  0  0  0
   25.9972   21.6042   13.9706 C   0  0  0  0  0  0  0  0  0  0  0  0
   25.2941   22.0351   15.0513 C   0  0  0  0  0  0  0  0  0  0  0  0
   25.0707   23.4024   15.2295 C   0  0  0  0  0  0  0  0  0  0  0  0
   24.4289   23.8628   16.2138 O   0  0  0  0  0  0  0  0  0  0  0  0
   24.9075   20.9845   15.8056 N   0  0  0  0  0  0  0  0  0  0  0  0
   25.4156   19.9184   15.1260 C   0  0  0  0  0  0  0  0  0  0  0  0
   26.1047   20.2686   14.0048 N   0  0  0  0  0  0  0  0  0  0  0  0
   25.4058   15.3266   12.4712 H   0  0  0  0  0  0  0  0  0  0  0  0
   24.3090   16.6812   12.9999 H   0  0  0  0  0  0  0  0  0  0  0  0
   26.1380   17.0482   11.1054 H   0  0  0  0  0  0  0  0  0  0  0  0
   27.9396   16.3210   13.2044 H   0  0  0  0  0  0  0  0  0  0  0  0
   28.5761   16.5150   11.0962 H   0  0  0  0  0  0  0  0  0  0  0  0
   27.4955   18.1473   14.6040 H   0  0  0  0  0  0  0  0  0  0  0  0
   29.2652   19.4369   12.7499 H   0  0  0  0  0  0  0  0  0  0  0  0
   27.1713   20.0216   12.1928 H   0  0  0  0  0  0  0  0  0  0  0  0
   25.4232   25.2765   14.3913 H   0  0  0  0  0  0  0  0  0  0  0  0
   26.6261   25.7270   12.3498 H   0  0  0  0  0  0  0  0  0  0  0  0
   27.3143   24.3567   11.4109 H   0  0  0  0  0  0  0  0  0  0  0  0
   26.0071   13.7641   16.7464 H   0  0  0  0  0  0  0  0  0  0  0  0
   26.3273   10.5333   14.3801 H   0  0  0  0  0  0  0  0  0  0  0  0
   25.6449    9.3710   14.8138 H   0  0  0  0  0  0  0  0  0  0  0  0
   22.9715   11.8966   13.7154 H   0  0  0  0  0  0  0  0  0  0  0  0
   22.1685    8.7237   14.8776 H   0  0  0  0  0  0  0  0  0  0  0  0
   25.2732   18.8978   15.4501 H   0  0  0  0  0  0  0  0  0  0  0  0
  5  4  1  0
  1  5  1  6
  6  4  1  0
  7  6  1  0
  8  6  1  0
  8  9  1  0
 10  8  1  0
 10 11  1  0
 12  7  1  0
 12 10  1  0
 14  1  2  0
 15  2  2  0
 16  3  2  0
 17 13  1  0
 18 17  1  0
 19  1  1  0
  2 20  1  1
 21  3  1  0
 22 17  2  0
 23  3  1  0
 23  2  1  0
 24  2  1  0
 24  1  1  0
 25  3  1  0
 26 22  1  0
 27 26  2  0
 28 27  1  0
 28 13  1  0
 29 28  2  0
 30 27  1  0
 31 30  2  0
 32 31  1  0
 32 26  1  0
 12 32  1  0
  4 33  1  0
  4 34  1  0
  6 35  1  6
  8 36  1  1
  9 37  1  0
 10 38  1  1
 11 39  1  0
 12 40  1  6
 13 41  1  0
 18 42  1  0
 18 43  1  0
 19 44  1  0
 20 45  1  0
 21 46  1  0
 23 47  1  0
 25 48  1  0
 31 49  1  0
M  END
