
     RDKit          3D

 20 20  0  0  0  0  0  0  0  0999 V2000
    6.9846   31.4617   23.0073 C   0  0  0  0  0  0  0  0  0  0  0  0
    6.0213   29.5288   18.4867 O   0  0  0  0  0  0  0  0  0  0  0  0
    6.8928   31.5452   21.5373 C   0  0  0  0  0  0  0  0  0  0  0  0
    7.3247   30.3949   23.5804 O   0  0  0  0  0  0  0  0  0  0  0  0
    6.3538   30.3566   20.7411 C   0  0  2  0  0  0  0  0  0  0  0  0
    6.7960   29.0688   21.2995 N   0  0  0  0  0  0  0  0  0  0  0  0
    6.6949   32.5735   23.7729 O   0  0  0  0  0  0  0  0  0  0  0  0
    6.7443   30.4618   19.2507 C   0  0  2  0  0  0  0  0  0  0  0  0
    6.5501   31.8710   18.7303 C   0  0  0  0  0  0  0  0  0  0  0  0
    6.8257   32.9254   19.5051 C   0  0  0  0  0  0  0  0  0  0  0  0
    7.0838   32.7447   20.9370 C   0  0  0  0  0  0  0  0  0  0  0  0
    5.0613   29.7790   18.5391 H   0  0  0  0  0  0  0  0  0  0  0  0
    5.2446   30.4042   20.8199 H   0  0  0  0  0  0  0  0  0  0  0  0
    7.7177   29.2006   21.7758 H   0  0  0  0  0  0  0  0  0  0  0  0
    6.1080   28.7493   22.0202 H   0  0  0  0  0  0  0  0  0  0  0  0
    6.1990   33.3639   23.3782 H   0  0  0  0  0  0  0  0  0  0  0  0
    7.8258   30.2259   19.1465 H   0  0  0  0  0  0  0  0  0  0  0  0
    6.3130   32.0258   17.6850 H   0  0  0  0  0  0  0  0  0  0  0  0
    6.7961   33.9245   19.0895 H   0  0  0  0  0  0  0  0  0  0  0  0
    7.3849   33.6153   21.5061 H   0  0  0  0  0  0  0  0  0  0  0  0
  3  1  1  0
  4  1  2  0
  5  3  1  0
  5  6  1  0
  7  1  1  0
  8  5  1  0
  8  2  1  0
  9  8  1  0
 10  9  2  0
 11 10  1  0
 11  3  2  0
  2 12  1  0
  5 13  1  6
  6 14  1  0
  6 15  1  0
  7 16  1  0
  8 17  1  1
  9 18  1  0
 10 19  1  0
 11 20  1  0
M  END
