
     RDKit          3D

 33 35  0  0  0  0  0  0  0  0999 V2000
   16.6236    8.6860  -13.5190 N   0  0  0  0  0  0  0  0  0  0  0  0
   12.2264    6.0317  -13.0951 Cl  0  0  0  0  0  0  0  0  0  0  0  0
   15.8759    7.6894  -12.9923 C   0  0  0  0  0  0  0  0  0  0  0  0
   18.6117   11.7869  -11.7817 O   0  0  0  0  0  0  0  0  0  0  0  0
   17.8638    8.6924  -12.9845 C   0  0  0  0  0  0  0  0  0  0  0  0
   19.8299    9.9416  -12.3287 N   0  0  0  0  0  0  0  0  0  0  0  0
   21.2316   14.3729   -9.5116 O   0  0  0  0  0  0  0  0  0  0  0  0
   18.9232    9.6430  -13.4440 C   0  0  0  0  0  0  0  0  0  0  0  0
   20.2107   11.1264  -10.3102 N   0  0  0  0  0  0  0  0  0  0  0  0
   19.6699   13.9411  -11.1235 O   0  0  0  0  0  0  0  0  0  0  0  0
   19.5308   10.9759  -11.4836 C   0  0  0  0  0  0  0  0  0  0  0  0
   21.1190    8.1038  -12.7711 O   0  0  0  0  0  0  0  0  0  0  0  0
   19.9347   12.2594   -9.4247 C   0  0  0  0  0  0  0  0  0  0  0  0
   20.2662   13.5606  -10.0815 C   0  0  0  0  0  0  0  0  0  0  0  0
   21.1576   10.2234   -9.9440 C   0  0  0  0  0  0  0  0  0  0  0  0
   21.4966    9.1829  -10.7896 C   0  0  0  0  0  0  0  0  0  0  0  0
   20.8257    9.0591  -12.0025 C   0  0  0  0  0  0  0  0  0  0  0  0
   16.5183    6.9102  -12.0418 C   0  0  0  0  0  0  0  0  0  0  0  0
   15.8900    5.8467  -11.4061 C   0  0  0  0  0  0  0  0  0  0  0  0
   14.5568    5.5787  -11.7390 C   0  0  0  0  0  0  0  0  0  0  0  0
   13.8966    6.3627  -12.7078 C   0  0  0  0  0  0  0  0  0  0  0  0
   14.5659    7.4065  -13.3680 C   0  0  0  0  0  0  0  0  0  0  0  0
   18.0916    7.4479  -11.8364 S   0  0  0  0  0  0  0  0  0  0  0  0
   21.5246   14.2460   -8.5499 H   0  0  0  0  0  0  0  0  0  0  0  0
   18.4516   10.5698  -13.8370 H   0  0  0  0  0  0  0  0  0  0  0  0
   19.4722    9.1927  -14.2987 H   0  0  0  0  0  0  0  0  0  0  0  0
   20.5149   12.1652   -8.4807 H   0  0  0  0  0  0  0  0  0  0  0  0
   18.8630   12.2755   -9.1265 H   0  0  0  0  0  0  0  0  0  0  0  0
   21.6818   10.3203   -9.0001 H   0  0  0  0  0  0  0  0  0  0  0  0
   22.2680    8.4774  -10.5058 H   0  0  0  0  0  0  0  0  0  0  0  0
   16.4100    5.2500  -10.6679 H   0  0  0  0  0  0  0  0  0  0  0  0
   14.0348    4.7680  -11.2470 H   0  0  0  0  0  0  0  0  0  0  0  0
   14.0638    8.0043  -14.1184 H   0  0  0  0  0  0  0  0  0  0  0  0
  3  1  1  0
  5  1  2  0
  8  6  1  0
  8  5  1  0
 11  6  1  0
 11  9  1  0
 11  4  2  0
 13  9  1  0
 14 13  1  0
 14 10  2  0
 14  7  1  0
 15  9  1  0
 16 15  2  0
 17 12  2  0
 17  6  1  0
 17 16  1  0
 18  3  2  0
 19 18  1  0
 20 19  2  0
 21 20  1  0
 21  2  1  0
 22 21  2  0
 22  3  1  0
 23 18  1  0
 23  5  1  0
  7 24  1  0
  8 25  1  0
  8 26  1  0
 13 27  1  0
 13 28  1  0
 15 29  1  0
 16 30  1  0
 19 31  1  0
 20 32  1  0
 22 33  1  0
M  END
