
     RDKit          3D

 99103  0  0  0  0  0  0  0  0999 V2000
  -13.6583   -5.4531   -5.8035 N   0  0  0  0  0  0  0  0  0  0  0  0
  -12.8892   -5.7669   -4.6147 C   0  0  1  0  0  0  0  0  0  0  0  0
  -14.3260   -3.6105   -1.7624 C   0  0  2  0  0  0  0  0  0  0  0  0
  -14.7350   -6.2519   -6.2847 C   0  0  0  0  0  0  0  0  0  0  0  0
  -14.9337   -7.4095   -5.8247 O   0  0  0  0  0  0  0  0  0  0  0  0
  -11.4336   -6.0288   -4.9994 C   0  0  0  0  0  0  0  0  0  0  0  0
  -15.7883   -3.1313   -1.8863 C   0  0  0  0  0  0  0  0  0  0  0  0
  -11.3824   -7.2016   -5.9295 C   0  0  0  0  0  0  0  0  0  0  0  0
  -16.1689   -2.8437   -3.3140 C   0  0  0  0  0  0  0  0  0  0  0  0
  -15.7831    1.2167    0.7375 C   0  0  0  0  0  0  0  0  0  0  0  0
  -15.7661   -1.6430   -3.9140 C   0  0  0  0  0  0  0  0  0  0  0  0
  -16.9089   -3.7781   -4.0602 C   0  0  0  0  0  0  0  0  0  0  0  0
  -11.6701   -8.4963   -5.4254 N   0  0  0  0  0  0  0  0  0  0  0  0
  -11.1713   -7.0430   -7.1620 O   0  0  0  0  0  0  0  0  0  0  0  0
  -16.1242   -1.3652   -5.2345 C   0  0  0  0  0  0  0  0  0  0  0  0
  -17.2972   -3.4797   -5.3688 C   0  0  0  0  0  0  0  0  0  0  0  0
  -16.8944   -2.2789   -5.9591 C   0  0  0  0  0  0  0  0  0  0  0  0
  -13.9364   -3.0969    0.7100 C   0  0  0  0  0  0  0  0  0  0  0  0
  -13.0290   -4.6113   -3.6922 C   0  0  0  0  0  0  0  0  0  0  0  0
  -15.2055   -4.5377   -7.9395 N   0  0  0  0  0  0  0  0  0  0  0  0
  -12.3374   -3.5672   -3.8533 O   0  0  0  0  0  0  0  0  0  0  0  0
  -15.5943   -5.6908   -7.3349 C   0  0  0  0  0  0  0  0  0  0  0  0
  -14.0759   -4.6655   -2.7319 N   0  0  0  0  0  0  0  0  0  0  0  0
  -14.9788   -5.1462   -0.0248 O   0  0  0  0  0  0  0  0  0  0  0  0
  -16.8049   -6.2897   -7.7040 C   0  0  0  0  0  0  0  0  0  0  0  0
  -10.2748   -1.1764    1.8974 C   0  0  2  0  0  0  0  0  0  0  0  0
  -14.7743    0.2890    1.2348 N   0  0  0  0  0  0  0  0  0  0  0  0
  -13.5594    0.0547   -0.7584 O   0  0  0  0  0  0  0  0  0  0  0  0
  -17.5857   -5.7067   -8.7061 C   0  0  0  0  0  0  0  0  0  0  0  0
  -17.1573   -4.5203   -9.3162 C   0  0  0  0  0  0  0  0  0  0  0  0
  -17.9119   -3.8918  -10.3141 C   0  0  0  0  0  0  0  0  0  0  0  0
  -17.4640   -2.6912  -10.8780 C   0  0  0  0  0  0  0  0  0  0  0  0
  -16.2608   -2.1166  -10.4564 C   0  0  0  0  0  0  0  0  0  0  0  0
  -10.2465   -2.6321    1.3929 C   0  0  2  0  0  0  0  0  0  0  0  0
  -15.4993   -2.7435   -9.4704 C   0  0  0  0  0  0  0  0  0  0  0  0
  -15.9406   -3.9421   -8.9046 C   0  0  0  0  0  0  0  0  0  0  0  0
  -14.0141   -4.1849   -0.3709 C   0  0  1  0  0  0  0  0  0  0  0  0
  -16.7649    1.5074    1.8889 C   0  0  0  0  0  0  0  0  0  0  0  0
  -12.6139   -2.4266    0.6504 N   0  0  0  0  0  0  0  0  0  0  0  0
  -12.6796   -1.0521    1.1927 C   0  0  1  0  0  0  0  0  0  0  0  0
  -16.5484    0.5794   -0.4385 C   0  0  0  0  0  0  0  0  0  0  0  0
  -11.3186   -0.3500    1.1334 C   0  0  0  0  0  0  0  0  0  0  0  0
  -15.1078    2.5301    0.3003 C   0  0  0  0  0  0  0  0  0  0  0  0
   -8.8782   -0.5403    1.8304 C   0  0  0  0  0  0  0  0  0  0  0  0
   -8.2261   -0.6925    0.4491 C   0  0  0  0  0  0  0  0  0  0  0  0
   -8.2317   -2.1480   -0.0344 C   0  0  0  0  0  0  0  0  0  0  0  0
   -9.6464   -2.7336   -0.0222 C   0  0  0  0  0  0  0  0  0  0  0  0
  -11.6534   -3.2241    1.4520 C   0  0  0  0  0  0  0  0  0  0  0  0
  -13.6801   -0.2052    0.4711 C   0  0  0  0  0  0  0  0  0  0  0  0
  -13.3896   -4.5833   -6.3184 H   0  0  0  0  0  0  0  0  0  0  0  0
  -13.2884   -6.6751   -4.1108 H   0  0  0  0  0  0  0  0  0  0  0  0
  -13.6556   -2.7439   -1.9555 H   0  0  0  0  0  0  0  0  0  0  0  0
  -10.9893   -5.1376   -5.4960 H   0  0  0  0  0  0  0  0  0  0  0  0
  -10.8363   -6.2559   -4.0896 H   0  0  0  0  0  0  0  0  0  0  0  0
  -16.4951   -3.8827   -1.4741 H   0  0  0  0  0  0  0  0  0  0  0  0
  -15.9322   -2.2054   -1.2899 H   0  0  0  0  0  0  0  0  0  0  0  0
  -15.1783   -0.9223   -3.3585 H   0  0  0  0  0  0  0  0  0  0  0  0
  -17.2106   -4.7202   -3.6195 H   0  0  0  0  0  0  0  0  0  0  0  0
  -10.9060   -9.1848   -5.2452 H   0  0  0  0  0  0  0  0  0  0  0  0
  -12.6580   -8.7830   -5.2461 H   0  0  0  0  0  0  0  0  0  0  0  0
  -15.8117   -0.4373   -5.6956 H   0  0  0  0  0  0  0  0  0  0  0  0
  -17.8896   -4.1880   -5.9330 H   0  0  0  0  0  0  0  0  0  0  0  0
  -17.1807   -2.0557   -6.9787 H   0  0  0  0  0  0  0  0  0  0  0  0
  -14.1081   -3.5525    1.7129 H   0  0  0  0  0  0  0  0  0  0  0  0
  -14.7888   -2.4020    0.5836 H   0  0  0  0  0  0  0  0  0  0  0  0
  -14.6764   -5.5212   -2.6870 H   0  0  0  0  0  0  0  0  0  0  0  0
  -14.5797   -5.7160    0.6841 H   0  0  0  0  0  0  0  0  0  0  0  0
  -17.1431   -7.2007   -7.2265 H   0  0  0  0  0  0  0  0  0  0  0  0
  -10.5731   -1.1872    2.9709 H   0  0  0  0  0  0  0  0  0  0  0  0
  -14.8337   -0.0090    2.2362 H   0  0  0  0  0  0  0  0  0  0  0  0
  -18.5198   -6.1730   -8.9950 H   0  0  0  0  0  0  0  0  0  0  0  0
  -18.8492   -4.3195  -10.6493 H   0  0  0  0  0  0  0  0  0  0  0  0
  -18.0530   -2.2042  -11.6444 H   0  0  0  0  0  0  0  0  0  0  0  0
  -15.9208   -1.1874  -10.8950 H   0  0  0  0  0  0  0  0  0  0  0  0
   -9.6056   -3.2281    2.0824 H   0  0  0  0  0  0  0  0  0  0  0  0
  -14.5685   -2.2949   -9.1454 H   0  0  0  0  0  0  0  0  0  0  0  0
  -13.0304   -4.6980   -0.4574 H   0  0  0  0  0  0  0  0  0  0  0  0
  -17.7640    1.0722    1.6691 H   0  0  0  0  0  0  0  0  0  0  0  0
  -16.3925    1.0708    2.8411 H   0  0  0  0  0  0  0  0  0  0  0  0
  -16.8868    2.6027    2.0338 H   0  0  0  0  0  0  0  0  0  0  0  0
  -12.9739   -1.1136    2.2671 H   0  0  0  0  0  0  0  0  0  0  0  0
  -17.2345   -0.2125   -0.0681 H   0  0  0  0  0  0  0  0  0  0  0  0
  -15.8632    0.1295   -1.1850 H   0  0  0  0  0  0  0  0  0  0  0  0
  -17.1523    1.3474   -0.9680 H   0  0  0  0  0  0  0  0  0  0  0  0
  -11.4004    0.6551    1.6048 H   0  0  0  0  0  0  0  0  0  0  0  0
  -11.0226   -0.2018    0.0736 H   0  0  0  0  0  0  0  0  0  0  0  0
  -14.2030    2.7223    0.9164 H   0  0  0  0  0  0  0  0  0  0  0  0
  -14.8040    2.4986   -0.7660 H   0  0  0  0  0  0  0  0  0  0  0  0
  -15.8071    3.3847    0.4254 H   0  0  0  0  0  0  0  0  0  0  0  0
   -8.9356    0.5378    2.0959 H   0  0  0  0  0  0  0  0  0  0  0  0
   -8.2250   -1.0298    2.5862 H   0  0  0  0  0  0  0  0  0  0  0  0
   -8.7486   -0.0515   -0.2925 H   0  0  0  0  0  0  0  0  0  0  0  0
   -7.1752   -0.3357    0.5056 H   0  0  0  0  0  0  0  0  0  0  0  0
   -7.8259   -2.1919   -1.0679 H   0  0  0  0  0  0  0  0  0  0  0  0
   -7.5688   -2.7582    0.6180 H   0  0  0  0  0  0  0  0  0  0  0  0
   -9.5892   -3.8023   -0.3232 H   0  0  0  0  0  0  0  0  0  0  0  0
  -10.2785   -2.2119   -0.7723 H   0  0  0  0  0  0  0  0  0  0  0  0
  -11.9718   -3.2719    2.5199 H   0  0  0  0  0  0  0  0  0  0  0  0
  -11.5948   -4.2727    1.0947 H   0  0  0  0  0  0  0  0  0  0  0  0
  2  1  1  0
  4  1  1  0
  5  4  2  0
  2  6  1  0
  3  7  1  0
  8  6  1  0
  9  7  1  0
 11  9  2  0
 12  9  1  0
 13  8  1  0
 14  8  2  0
 15 11  1  0
 16 12  2  0
 17 16  1  0
 17 15  2  0
 19  2  1  0
 21 19  2  0
 22  4  1  0
 22 20  2  0
 23 19  1  0
 23  3  1  0
 25 22  1  0
 27 10  1  0
 29 25  2  0
 30 29  1  0
 31 30  1  0
 32 31  2  0
 33 32  1  0
 34 26  1  0
 35 33  2  0
 36 30  2  0
 36 35  1  0
 36 20  1  0
 37 24  1  0
 37 18  1  0
 37  3  1  0
 10 38  1  0
 39 18  1  0
 40 39  1  0
 41 10  1  0
 42 40  1  0
 26 42  1  0
 43 10  1  0
 44 26  1  0
 45 44  1  0
 46 45  1  0
 47 46  1  0
 34 47  1  0
 48 39  1  0
 48 34  1  0
 40 49  1  0
 49 28  2  0
 49 27  1  0
  1 50  1  0
  2 51  1  1
  3 52  1  6
  6 53  1  0
  6 54  1  0
  7 55  1  0
  7 56  1  0
 11 57  1  0
 12 58  1  0
 13 59  1  0
 13 60  1  0
 15 61  1  0
 16 62  1  0
 17 63  1  0
 18 64  1  0
 18 65  1  0
 23 66  1  0
 24 67  1  0
 25 68  1  0
 26 69  1  1
 27 70  1  0
 29 71  1  0
 31 72  1  0
 32 73  1  0
 33 74  1  0
 34 75  1  1
 35 76  1  0
 37 77  1  6
 38 78  1  0
 38 79  1  0
 38 80  1  0
 40 81  1  1
 41 82  1  0
 41 83  1  0
 41 84  1  0
 42 85  1  0
 42 86  1  0
 43 87  1  0
 43 88  1  0
 43 89  1  0
 44 90  1  0
 44 91  1  0
 45 92  1  0
 45 93  1  0
 46 94  1  0
 46 95  1  0
 47 96  1  0
 47 97  1  0
 48 98  1  0
 48 99  1  0
M  END
