
     RDKit          3D

 95 96  0  0  0  0  0  0  0  0999 V2000
  -22.6745   45.3883    7.1249 C   0  0  0  0  0  0  0  0  0  0  0  0
  -23.0014   45.2011    5.6256 C   0  0  0  0  0  0  0  0  0  0  0  0
  -21.7954   44.6725    4.8604 C   0  0  0  0  0  0  0  0  0  0  0  0
  -21.3640   43.3122    5.4078 C   0  0  0  0  0  0  0  0  0  0  0  0
  -21.3598   43.2216    6.9242 C   0  0  0  0  0  0  0  0  0  0  0  0
  -21.9953   44.1418    7.7098 C   0  0  0  0  0  0  0  0  0  0  0  0
  -21.9089   44.0647    9.1894 C   0  0  0  0  0  0  0  0  0  0  0  0
  -22.3716   43.0190    9.8857 C   0  0  0  0  0  0  0  0  0  0  0  0
  -22.2713   42.9320   11.3705 C   0  0  0  0  0  0  0  0  0  0  0  0
  -22.5436   41.7490   11.9596 C   0  0  0  0  0  0  0  0  0  0  0  0
  -22.3492   41.4599   13.4034 C   0  0  0  0  0  0  0  0  0  0  0  0
  -22.7065   40.2669   13.9019 C   0  0  0  0  0  0  0  0  0  0  0  0
  -22.3925   39.8243   15.2900 C   0  0  0  0  0  0  0  0  0  0  0  0
  -22.6007   38.5301   15.6042 C   0  0  0  0  0  0  0  0  0  0  0  0
  -22.1851   37.8891   16.8762 C   0  0  0  0  0  0  0  0  0  0  0  0
  -22.4665   36.5991   17.0800 C   0  0  0  0  0  0  0  0  0  0  0  0
  -21.9830   35.8731   18.2766 C   0  0  0  0  0  0  0  0  0  0  0  0
  -22.3944   34.6352   18.6308 C   0  0  0  0  0  0  0  0  0  0  0  0
  -21.7114   33.9804   19.7839 C   0  0  0  0  0  0  0  0  0  0  0  0
  -22.2265   32.9366   20.4460 C   0  0  0  0  0  0  0  0  0  0  0  0
  -21.4694   32.2724   21.5263 C   0  0  0  0  0  0  0  0  0  0  0  0
  -21.9857   31.3191   22.3273 C   0  0  0  0  0  0  0  0  0  0  0  0
  -21.0464   30.5810   23.2127 C   0  0  0  0  0  0  0  0  0  0  0  0
  -21.3922   29.4608   23.8592 C   0  0  0  0  0  0  0  0  0  0  0  0
  -20.4263   28.6046   24.5902 C   0  0  0  0  0  0  0  0  0  0  0  0
  -20.7162   28.2480   25.8725 C   0  0  0  0  0  0  0  0  0  0  0  0
  -19.9869   27.1413   26.5436 C   0  0  0  0  0  0  0  0  0  0  0  0
  -20.3673   26.7298   27.6732 O   0  0  0  0  0  0  0  0  0  0  0  0
  -18.8308   26.4596   25.8761 C   0  0  0  0  0  0  0  0  0  0  0  0
  -18.2699   27.3004   24.7261 C   0  0  0  0  0  0  0  0  0  0  0  0
  -19.3771   27.8252   23.7805 C   0  0  0  0  0  0  0  0  0  0  0  0
  -24.0059   45.6537    7.8603 C   0  0  0  0  0  0  0  0  0  0  0  0
  -21.7529   46.6150    7.3128 C   0  0  0  0  0  0  0  0  0  0  0  0
  -20.6823   42.0057    7.5204 C   0  0  0  0  0  0  0  0  0  0  0  0
  -21.8425   44.1421   12.1751 C   0  0  0  0  0  0  0  0  0  0  0  0
  -21.8751   40.8158   16.3060 C   0  0  0  0  0  0  0  0  0  0  0  0
  -23.4970   33.9039   17.8799 C   0  0  0  0  0  0  0  0  0  0  0  0
  -23.4466   30.9131   22.2481 C   0  0  0  0  0  0  0  0  0  0  0  0
  -21.7738   28.9847   26.6635 C   0  0  0  0  0  0  0  0  0  0  0  0
  -20.0704   26.6440   23.0684 C   0  0  0  0  0  0  0  0  0  0  0  0
  -18.6890   28.7053   22.7091 C   0  0  0  0  0  0  0  0  0  0  0  0
  -23.8382   44.4765    5.5028 H   0  0  0  0  0  0  0  0  0  0  0  0
  -23.3306   46.1620    5.1716 H   0  0  0  0  0  0  0  0  0  0  0  0
  -20.9497   45.3894    4.9128 H   0  0  0  0  0  0  0  0  0  0  0  0
  -22.0631   44.5631    3.7870 H   0  0  0  0  0  0  0  0  0  0  0  0
  -20.3485   43.0853    5.0169 H   0  0  0  0  0  0  0  0  0  0  0  0
  -22.0560   42.5335    5.0197 H   0  0  0  0  0  0  0  0  0  0  0  0
  -21.4386   44.9011    9.6835 H   0  0  0  0  0  0  0  0  0  0  0  0
  -22.8438   42.2050    9.3474 H   0  0  0  0  0  0  0  0  0  0  0  0
  -22.8840   40.9296   11.3346 H   0  0  0  0  0  0  0  0  0  0  0  0
  -21.8011   42.1569   14.0185 H   0  0  0  0  0  0  0  0  0  0  0  0
  -23.1905   39.5559   13.2402 H   0  0  0  0  0  0  0  0  0  0  0  0
  -23.0307   37.8830   14.8461 H   0  0  0  0  0  0  0  0  0  0  0  0
  -21.6208   38.4374   17.6195 H   0  0  0  0  0  0  0  0  0  0  0  0
  -22.9898   36.0660   16.2992 H   0  0  0  0  0  0  0  0  0  0  0  0
  -21.2191   36.3618   18.8725 H   0  0  0  0  0  0  0  0  0  0  0  0
  -20.7513   34.3716   20.1041 H   0  0  0  0  0  0  0  0  0  0  0  0
  -23.1519   32.4913   20.1244 H   0  0  0  0  0  0  0  0  0  0  0  0
  -20.4242   32.5427   21.6378 H   0  0  0  0  0  0  0  0  0  0  0  0
  -20.0414   30.9646   23.3301 H   0  0  0  0  0  0  0  0  0  0  0  0
  -22.3955   29.0668   23.7930 H   0  0  0  0  0  0  0  0  0  0  0  0
  -19.1574   25.4662   25.5025 H   0  0  0  0  0  0  0  0  0  0  0  0
  -18.0251   26.2877   26.6222 H   0  0  0  0  0  0  0  0  0  0  0  0
  -17.5319   26.6872   24.1627 H   0  0  0  0  0  0  0  0  0  0  0  0
  -17.7174   28.1632   25.1625 H   0  0  0  0  0  0  0  0  0  0  0  0
  -24.1374   46.7413    8.0494 H   0  0  0  0  0  0  0  0  0  0  0  0
  -24.0255   45.1237    8.8374 H   0  0  0  0  0  0  0  0  0  0  0  0
  -24.8768   45.2965    7.2696 H   0  0  0  0  0  0  0  0  0  0  0  0
  -22.2013   47.5210    6.8522 H   0  0  0  0  0  0  0  0  0  0  0  0
  -20.7658   46.4471    6.8309 H   0  0  0  0  0  0  0  0  0  0  0  0
  -21.5911   46.8387    8.3877 H   0  0  0  0  0  0  0  0  0  0  0  0
  -19.9356   42.3170    8.2812 H   0  0  0  0  0  0  0  0  0  0  0  0
  -20.1485   41.4217    6.7411 H   0  0  0  0  0  0  0  0  0  0  0  0
  -21.4329   41.3334    7.9824 H   0  0  0  0  0  0  0  0  0  0  0  0
  -22.2227   45.0792   11.7205 H   0  0  0  0  0  0  0  0  0  0  0  0
  -22.2777   44.1387   13.1944 H   0  0  0  0  0  0  0  0  0  0  0  0
  -20.7352   44.1783   12.2404 H   0  0  0  0  0  0  0  0  0  0  0  0
  -21.8281   41.8404   15.8828 H   0  0  0  0  0  0  0  0  0  0  0  0
  -20.8347   40.5766   16.6067 H   0  0  0  0  0  0  0  0  0  0  0  0
  -22.5307   40.8118   17.2016 H   0  0  0  0  0  0  0  0  0  0  0  0
  -24.2014   34.5899   17.3732 H   0  0  0  0  0  0  0  0  0  0  0  0
  -24.1534   33.3438   18.5740 H   0  0  0  0  0  0  0  0  0  0  0  0
  -23.0515   33.2088   17.1383 H   0  0  0  0  0  0  0  0  0  0  0  0
  -23.5287   29.8094   22.1636 H   0  0  0  0  0  0  0  0  0  0  0  0
  -23.9650   31.3955   21.3951 H   0  0  0  0  0  0  0  0  0  0  0  0
  -24.0075   31.2659   23.1366 H   0  0  0  0  0  0  0  0  0  0  0  0
  -21.2859   29.6888   27.3695 H   0  0  0  0  0  0  0  0  0  0  0  0
  -22.4556   29.5578   26.0012 H   0  0  0  0  0  0  0  0  0  0  0  0
  -22.4068   28.2722   27.2344 H   0  0  0  0  0  0  0  0  0  0  0  0
  -20.6492   26.0214   23.7827 H   0  0  0  0  0  0  0  0  0  0  0  0
  -20.7845   27.0174   22.3028 H   0  0  0  0  0  0  0  0  0  0  0  0
  -19.3238   25.9974   22.5587 H   0  0  0  0  0  0  0  0  0  0  0  0
  -18.2197   29.5987   23.1730 H   0  0  0  0  0  0  0  0  0  0  0  0
  -17.8815   28.1327   22.2032 H   0  0  0  0  0  0  0  0  0  0  0  0
  -19.3965   29.0168   21.9125 H   0  0  0  0  0  0  0  0  0  0  0  0
  2  1  1  0
  3  2  1  0
  4  3  1  0
  5  4  1  0
  6  1  1  0
  6  5  2  0
  7  6  1  0
  8  7  2  3
  9  8  1  0
 10  9  2  3
 11 10  1  0
 12 11  2  3
 13 12  1  0
 14 13  2  3
 15 14  1  0
 16 15  2  3
 17 16  1  0
 18 17  2  3
 19 18  1  0
 20 19  2  3
 21 20  1  0
 22 21  2  3
 23 22  1  0
 24 23  2  3
 25 24  1  0
 26 25  2  0
 27 26  1  0
 28 27  2  0
 29 27  1  0
 30 29  1  0
 31 30  1  0
 31 25  1  0
  1 32  1  0
 33  1  1  0
 34  5  1  0
 35  9  1  0
 36 13  1  0
 37 18  1  0
 38 22  1  0
 39 26  1  0
 31 40  1  0
 41 31  1  0
  2 42  1  0
  2 43  1  0
  3 44  1  0
  3 45  1  0
  4 46  1  0
  4 47  1  0
  7 48  1  0
  8 49  1  0
 10 50  1  0
 11 51  1  0
 12 52  1  0
 14 53  1  0
 15 54  1  0
 16 55  1  0
 17 56  1  0
 19 57  1  0
 20 58  1  0
 21 59  1  0
 23 60  1  0
 24 61  1  0
 29 62  1  0
 29 63  1  0
 30 64  1  0
 30 65  1  0
 32 66  1  0
 32 67  1  0
 32 68  1  0
 33 69  1  0
 33 70  1  0
 33 71  1  0
 34 72  1  0
 34 73  1  0
 34 74  1  0
 35 75  1  0
 35 76  1  0
 35 77  1  0
 36 78  1  0
 36 79  1  0
 36 80  1  0
 37 81  1  0
 37 82  1  0
 37 83  1  0
 38 84  1  0
 38 85  1  0
 38 86  1  0
 39 87  1  0
 39 88  1  0
 39 89  1  0
 40 90  1  0
 40 91  1  0
 40 92  1  0
 41 93  1  0
 41 94  1  0
 41 95  1  0
M  END
