
     RDKit          3D

 95 96  0  0  0  0  0  0  0  0999 V2000
  -21.4972    2.8472    2.1104 C   0  0  0  0  0  0  0  0  0  0  0  0
  -21.8194    3.0369    3.6115 C   0  0  0  0  0  0  0  0  0  0  0  0
  -20.6189    3.5862    4.3698 C   0  0  0  0  0  0  0  0  0  0  0  0
  -20.2045    4.9463    3.8066 C   0  0  0  0  0  0  0  0  0  0  0  0
  -20.2036    5.0269    2.2882 C   0  0  0  0  0  0  0  0  0  0  0  0
  -20.8369    4.0976    1.5117 C   0  0  0  0  0  0  0  0  0  0  0  0
  -20.7688    4.1637    0.0264 C   0  0  0  0  0  0  0  0  0  0  0  0
  -21.3577    5.1323   -0.6874 C   0  0  0  0  0  0  0  0  0  0  0  0
  -21.2902    5.2035   -2.1778 C   0  0  0  0  0  0  0  0  0  0  0  0
  -21.7548    6.3204   -2.7760 C   0  0  0  0  0  0  0  0  0  0  0  0
  -21.6117    6.6259   -4.2200 C   0  0  0  0  0  0  0  0  0  0  0  0
  -22.1393    7.7487   -4.7331 C   0  0  0  0  0  0  0  0  0  0  0  0
  -21.8873    8.2021   -6.1327 C   0  0  0  0  0  0  0  0  0  0  0  0
  -22.1355    9.4930   -6.4402 C   0  0  0  0  0  0  0  0  0  0  0  0
  -21.7902   10.1476   -7.7309 C   0  0  0  0  0  0  0  0  0  0  0  0
  -22.5001   11.2044   -8.1445 C   0  0  0  0  0  0  0  0  0  0  0  0
  -22.1388   11.9703   -9.3638 C   0  0  0  0  0  0  0  0  0  0  0  0
  -22.8625   13.0013   -9.8619 C   0  0  0  0  0  0  0  0  0  0  0  0
  -22.2885   13.7711  -11.0031 C   0  0  0  0  0  0  0  0  0  0  0  0
  -22.6357   15.0344  -11.2830 C   0  0  0  0  0  0  0  0  0  0  0  0
  -21.9910   15.7736  -12.3879 C   0  0  0  0  0  0  0  0  0  0  0  0
  -22.3711   17.0023  -12.7915 C   0  0  0  0  0  0  0  0  0  0  0  0
  -21.4749   17.7317  -13.7281 C   0  0  0  0  0  0  0  0  0  0  0  0
  -21.6959   19.0062  -14.0741 C   0  0  0  0  0  0  0  0  0  0  0  0
  -20.7269   19.8455  -14.8139 C   0  0  0  0  0  0  0  0  0  0  0  0
  -21.1496   20.5142  -15.9223 C   0  0  0  0  0  0  0  0  0  0  0  0
  -20.3217   21.5826  -16.5377 C   0  0  0  0  0  0  0  0  0  0  0  0
  -20.8041   22.3049  -17.4480 O   0  0  0  0  0  0  0  0  0  0  0  0
  -18.9125   21.8279  -16.1162 C   0  0  0  0  0  0  0  0  0  0  0  0
  -18.6980   21.4390  -14.6569 C   0  0  0  0  0  0  0  0  0  0  0  0
  -19.3597   20.1398  -14.1727 C   0  0  0  0  0  0  0  0  0  0  0  0
  -22.8287    2.5635    1.3849 C   0  0  0  0  0  0  0  0  0  0  0  0
  -20.5688    1.6267    1.9187 C   0  0  0  0  0  0  0  0  0  0  0  0
  -19.5605    6.2556    1.6788 C   0  0  0  0  0  0  0  0  0  0  0  0
  -20.7226    4.0487   -2.9824 C   0  0  0  0  0  0  0  0  0  0  0  0
  -21.3465    7.2305   -7.1576 C   0  0  0  0  0  0  0  0  0  0  0  0
  -24.1927   13.4291   -9.2615 C   0  0  0  0  0  0  0  0  0  0  0  0
  -23.5943   17.6969  -12.2152 C   0  0  0  0  0  0  0  0  0  0  0  0
  -22.5095   20.2394  -16.5314 C   0  0  0  0  0  0  0  0  0  0  0  0
  -18.4303   19.3543  -14.6767 C   0  0  0  0  0  0  0  0  0  0  0  0
  -19.1447   19.5783  -12.7588 C   0  0  0  0  0  0  0  0  0  0  0  0
  -22.1333    2.0738    4.0714 H   0  0  0  0  0  0  0  0  0  0  0  0
  -22.6657    3.7504    3.7347 H   0  0  0  0  0  0  0  0  0  0  0  0
  -19.7653    2.8784    4.3193 H   0  0  0  0  0  0  0  0  0  0  0  0
  -20.8847    3.7023    5.4429 H   0  0  0  0  0  0  0  0  0  0  0  0
  -20.9044    5.7203    4.1899 H   0  0  0  0  0  0  0  0  0  0  0  0
  -19.1910    5.1896    4.1927 H   0  0  0  0  0  0  0  0  0  0  0  0
  -20.2093    3.3799   -0.4608 H   0  0  0  0  0  0  0  0  0  0  0  0
  -21.9211    5.8917   -0.1572 H   0  0  0  0  0  0  0  0  0  0  0  0
  -22.2067    7.0881   -2.1562 H   0  0  0  0  0  0  0  0  0  0  0  0
  -20.9702    6.0067   -4.8281 H   0  0  0  0  0  0  0  0  0  0  0  0
  -22.7181    8.3952   -4.0819 H   0  0  0  0  0  0  0  0  0  0  0  0
  -22.5595   10.1270   -5.6680 H   0  0  0  0  0  0  0  0  0  0  0  0
  -20.9450    9.8123   -8.3176 H   0  0  0  0  0  0  0  0  0  0  0  0
  -23.3093   11.5450   -7.5150 H   0  0  0  0  0  0  0  0  0  0  0  0
  -21.2105   11.6988   -9.8552 H   0  0  0  0  0  0  0  0  0  0  0  0
  -21.5682   13.2776  -11.6473 H   0  0  0  0  0  0  0  0  0  0  0  0
  -23.3004   15.5675  -10.6265 H   0  0  0  0  0  0  0  0  0  0  0  0
  -21.1232   15.3151  -12.8510 H   0  0  0  0  0  0  0  0  0  0  0  0
  -20.5963   17.2275  -14.1080 H   0  0  0  0  0  0  0  0  0  0  0  0
  -22.5795   19.5309  -13.7464 H   0  0  0  0  0  0  0  0  0  0  0  0
  -18.2199   21.2841  -16.7916 H   0  0  0  0  0  0  0  0  0  0  0  0
  -18.6786   22.9094  -16.2311 H   0  0  0  0  0  0  0  0  0  0  0  0
  -17.6257   21.6014  -14.3720 H   0  0  0  0  0  0  0  0  0  0  0  0
  -19.2060   22.2325  -14.0646 H   0  0  0  0  0  0  0  0  0  0  0  0
  -23.4941    3.4532    1.4281 H   0  0  0  0  0  0  0  0  0  0  0  0
  -22.6662    2.3038    0.3166 H   0  0  0  0  0  0  0  0  0  0  0  0
  -23.3582    1.7082    1.8584 H   0  0  0  0  0  0  0  0  0  0  0  0
  -20.4673    1.3694    0.8428 H   0  0  0  0  0  0  0  0  0  0  0  0
  -20.9748    0.7336    2.4408 H   0  0  0  0  0  0  0  0  0  0  0  0
  -19.5492    1.8317    2.3062 H   0  0  0  0  0  0  0  0  0  0  0  0
  -19.0259    6.8503    2.4494 H   0  0  0  0  0  0  0  0  0  0  0  0
  -18.8201    5.9581    0.9064 H   0  0  0  0  0  0  0  0  0  0  0  0
  -20.3320    6.9121    1.2285 H   0  0  0  0  0  0  0  0  0  0  0  0
  -21.5068    3.6339   -3.6492 H   0  0  0  0  0  0  0  0  0  0  0  0
  -20.3232    3.2462   -2.3299 H   0  0  0  0  0  0  0  0  0  0  0  0
  -19.8514    4.3730   -3.5864 H   0  0  0  0  0  0  0  0  0  0  0  0
  -20.2375    7.2749   -7.1690 H   0  0  0  0  0  0  0  0  0  0  0  0
  -21.7392    7.4509   -8.1712 H   0  0  0  0  0  0  0  0  0  0  0  0
  -21.6755    6.1938   -6.9394 H   0  0  0  0  0  0  0  0  0  0  0  0
  -24.0410   14.2990   -8.5891 H   0  0  0  0  0  0  0  0  0  0  0  0
  -24.7005   12.6169   -8.7093 H   0  0  0  0  0  0  0  0  0  0  0  0
  -24.9212   13.6879  -10.0553 H   0  0  0  0  0  0  0  0  0  0  0  0
  -24.1358   18.2630  -12.9988 H   0  0  0  0  0  0  0  0  0  0  0  0
  -23.2916   18.3784  -11.3930 H   0  0  0  0  0  0  0  0  0  0  0  0
  -24.3569   16.9828  -11.8483 H   0  0  0  0  0  0  0  0  0  0  0  0
  -22.6652   19.1434  -16.6147 H   0  0  0  0  0  0  0  0  0  0  0  0
  -22.5927   20.7005  -17.5385 H   0  0  0  0  0  0  0  0  0  0  0  0
  -23.3269   20.6714  -15.9172 H   0  0  0  0  0  0  0  0  0  0  0  0
  -17.3530   19.4419  -14.3414 H   0  0  0  0  0  0  0  0  0  0  0  0
  -18.3811   19.3556  -15.7943 H   0  0  0  0  0  0  0  0  0  0  0  0
  -18.6534   18.2538  -14.6297 H   0  0  0  0  0  0  0  0  0  0  0  0
  -19.0908   18.4721  -12.6050 H   0  0  0  0  0  0  0  0  0  0  0  0
  -18.2904   20.0603  -12.2202 H   0  0  0  0  0  0  0  0  0  0  0  0
  -20.0268   19.8929  -12.1613 H   0  0  0  0  0  0  0  0  0  0  0  0
  2  1  1  0
  3  2  1  0
  4  3  1  0
  5  4  1  0
  6  1  1  0
  6  5  2  0
  7  6  1  0
  8  7  2  3
  9  8  1  0
 10  9  2  3
 11 10  1  0
 12 11  2  3
 13 12  1  0
 14 13  2  3
 15 14  1  0
 16 15  2  3
 17 16  1  0
 18 17  2  3
 19 18  1  0
 20 19  2  3
 21 20  1  0
 22 21  2  3
 23 22  1  0
 24 23  2  3
 25 24  1  0
 26 25  2  0
 27 26  1  0
 28 27  2  0
 29 27  1  0
 30 29  1  0
 31 30  1  0
 31 25  1  0
  1 32  1  0
 33  1  1  0
 34  5  1  0
 35  9  1  0
 36 13  1  0
 37 18  1  0
 38 22  1  0
 39 26  1  0
 31 40  1  0
 41 31  1  0
  2 42  1  0
  2 43  1  0
  3 44  1  0
  3 45  1  0
  4 46  1  0
  4 47  1  0
  7 48  1  0
  8 49  1  0
 10 50  1  0
 11 51  1  0
 12 52  1  0
 14 53  1  0
 15 54  1  0
 16 55  1  0
 17 56  1  0
 19 57  1  0
 20 58  1  0
 21 59  1  0
 23 60  1  0
 24 61  1  0
 29 62  1  0
 29 63  1  0
 30 64  1  0
 30 65  1  0
 32 66  1  0
 32 67  1  0
 32 68  1  0
 33 69  1  0
 33 70  1  0
 33 71  1  0
 34 72  1  0
 34 73  1  0
 34 74  1  0
 35 75  1  0
 35 76  1  0
 35 77  1  0
 36 78  1  0
 36 79  1  0
 36 80  1  0
 37 81  1  0
 37 82  1  0
 37 83  1  0
 38 84  1  0
 38 85  1  0
 38 86  1  0
 39 87  1  0
 39 88  1  0
 39 89  1  0
 40 90  1  0
 40 91  1  0
 40 92  1  0
 41 93  1  0
 41 94  1  0
 41 95  1  0
M  END
