
     RDKit          3D

 66 66  0  0  0  0  0  0  0  0999 V2000
   31.9215   -5.0960   25.1310 C   0  0  0  0  0  0  0  0  0  0  0  0
   32.4777   -0.0377   23.9658 O   0  0  0  0  0  0  0  0  0  0  0  0
   30.8756   -4.7200   24.2867 C   0  0  0  0  0  0  0  0  0  0  0  0
   30.6912   -0.7807   22.4706 O   0  0  0  0  0  0  0  0  0  0  0  0
   30.9178   -3.4936   23.6234 C   0  0  0  0  0  0  0  0  0  0  0  0
   32.0022   -2.6313   23.8135 C   0  0  0  0  0  0  0  0  0  0  0  0
   33.0287   -2.9906   24.6989 C   0  0  0  0  0  0  0  0  0  0  0  0
   32.9985   -4.2316   25.3355 C   0  0  0  0  0  0  0  0  0  0  0  0
   32.9796   -1.0849   21.5379 N   0  0  0  0  0  0  0  0  0  0  0  0
   34.2162   -1.7447   21.6603 C   0  0  0  0  0  0  0  0  0  0  0  0
   34.6403   -2.7521   20.6496 C   0  0  0  0  0  0  0  0  0  0  0  0
   35.5140   -3.7590   21.4188 C   0  0  0  0  0  0  0  0  0  0  0  0
   35.6518   -3.3469   22.8739 C   0  0  0  0  0  0  0  0  0  0  0  0
   32.0484   -1.0932   22.9863 S   0  0  0  0  0  0  0  0  0  0  0  0
   38.1476    4.3050   23.8943 C   0  0  0  0  0  0  0  0  0  0  0  0
   35.7038   -0.2632   22.5846 O   0  0  0  0  0  0  0  0  0  0  0  0
   38.6760    3.3349   24.9448 C   0  0  0  0  0  0  0  0  0  0  0  0
   36.2372   -0.4740   25.2685 O   0  0  0  0  0  0  0  0  0  0  0  0
   37.8566    2.0667   25.0477 C   0  0  0  0  0  0  0  0  0  0  0  0
   37.6645    1.4669   23.6780 C   0  0  0  0  0  0  0  0  0  0  0  0
   36.9949    2.3907   22.6963 C   0  0  0  0  0  0  0  0  0  0  0  0
   37.8009    3.6666   22.5540 C   0  0  0  0  0  0  0  0  0  0  0  0
   38.1239   -1.2505   23.3963 N   0  0  0  0  0  0  0  0  0  0  0  0
   39.1943   -1.1969   24.3904 C   0  0  0  0  0  0  0  0  0  0  0  0
   40.2287   -2.2581   24.0286 C   0  0  0  0  0  0  0  0  0  0  0  0
   40.4289   -3.2919   25.1321 C   0  0  0  0  0  0  0  0  0  0  0  0
   39.1982   -4.1676   25.3329 C   0  0  0  0  0  0  0  0  0  0  0  0
   36.8854   -0.1041   23.7635 S   0  0  0  0  0  0  0  0  0  0  0  0
   31.8931   -6.0537   25.6344 H   0  0  0  0  0  0  0  0  0  0  0  0
   30.0380   -5.3883   24.1342 H   0  0  0  0  0  0  0  0  0  0  0  0
   30.1077   -3.2288   22.9565 H   0  0  0  0  0  0  0  0  0  0  0  0
   33.8517   -2.3156   24.8972 H   0  0  0  0  0  0  0  0  0  0  0  0
   33.8011   -4.5165   26.0034 H   0  0  0  0  0  0  0  0  0  0  0  0
   33.1232   -0.0867   21.2555 H   0  0  0  0  0  0  0  0  0  0  0  0
   35.0182   -0.9679   21.6562 H   0  0  0  0  0  0  0  0  0  0  0  0
   34.3376   -2.1286   22.6846 H   0  0  0  0  0  0  0  0  0  0  0  0
   33.7542   -3.2411   20.1875 H   0  0  0  0  0  0  0  0  0  0  0  0
   35.2291   -2.2629   19.8419 H   0  0  0  0  0  0  0  0  0  0  0  0
   34.9861   -4.7374   21.4088 H   0  0  0  0  0  0  0  0  0  0  0  0
   36.5098   -3.9573   20.9594 H   0  0  0  0  0  0  0  0  0  0  0  0
   36.3051   -4.0709   23.4047 H   0  0  0  0  0  0  0  0  0  0  0  0
   36.1043   -2.3388   22.9563 H   0  0  0  0  0  0  0  0  0  0  0  0
   34.6586   -3.3390   23.3721 H   0  0  0  0  0  0  0  0  0  0  0  0
   38.8927    5.1141   23.7339 H   0  0  0  0  0  0  0  0  0  0  0  0
   37.2276    4.7829   24.2975 H   0  0  0  0  0  0  0  0  0  0  0  0
   35.3776   -1.1938   22.6753 H   0  0  0  0  0  0  0  0  0  0  0  0
   39.7241    3.0659   24.6851 H   0  0  0  0  0  0  0  0  0  0  0  0
   38.6997    3.8398   25.9348 H   0  0  0  0  0  0  0  0  0  0  0  0
   35.4253    0.0887   25.3381 H   0  0  0  0  0  0  0  0  0  0  0  0
   36.8671    2.3033   25.4975 H   0  0  0  0  0  0  0  0  0  0  0  0
   38.3820    1.3525   25.7181 H   0  0  0  0  0  0  0  0  0  0  0  0
   38.6738    1.2827   23.2517 H   0  0  0  0  0  0  0  0  0  0  0  0
   36.9169    1.9062   21.6982 H   0  0  0  0  0  0  0  0  0  0  0  0
   35.9686    2.6355   23.0492 H   0  0  0  0  0  0  0  0  0  0  0  0
   38.7463    3.4389   22.0133 H   0  0  0  0  0  0  0  0  0  0  0  0
   37.2326    4.3941   21.9347 H   0  0  0  0  0  0  0  0  0  0  0  0
   37.6564   -2.1856   23.4509 H   0  0  0  0  0  0  0  0  0  0  0  0
   39.6804   -0.2003   24.3768 H   0  0  0  0  0  0  0  0  0  0  0  0
   38.7998   -1.4059   25.4091 H   0  0  0  0  0  0  0  0  0  0  0  0
   39.9368   -2.7664   23.0829 H   0  0  0  0  0  0  0  0  0  0  0  0
   41.2093   -1.7620   23.8536 H   0  0  0  0  0  0  0  0  0  0  0  0
   41.2832   -3.9461   24.8528 H   0  0  0  0  0  0  0  0  0  0  0  0
   40.6891   -2.7888   26.0889 H   0  0  0  0  0  0  0  0  0  0  0  0
   39.4318   -4.9690   26.0651 H   0  0  0  0  0  0  0  0  0  0  0  0
   38.8966   -4.6423   24.3750 H   0  0  0  0  0  0  0  0  0  0  0  0
   38.3523   -3.5707   25.7333 H   0  0  0  0  0  0  0  0  0  0  0  0
  3  1  2  0
  5  3  1  0
  6  5  2  0
  7  6  1  0
  8  7  2  0
  8  1  1  0
 10  9  1  0
 11 10  1  0
 12 11  1  0
 13 12  1  0
 14  6  1  0
 14  4  2  0
 14  2  2  0
 14  9  1  0
 17 15  1  0
 19 17  1  0
 20 19  1  0
 21 20  1  0
 22 21  1  0
 22 15  1  0
 24 23  1  0
 25 24  1  0
 26 25  1  0
 27 26  1  0
 28 23  1  0
 28 20  1  0
 28 18  1  0
 28 16  1  0
  1 29  1  0
  3 30  1  0
  5 31  1  0
  7 32  1  0
  8 33  1  0
  9 34  1  0
 10 35  1  0
 10 36  1  0
 11 37  1  0
 11 38  1  0
 12 39  1  0
 12 40  1  0
 13 41  1  0
 13 42  1  0
 13 43  1  0
 15 44  1  0
 15 45  1  0
 16 46  1  0
 17 47  1  0
 17 48  1  0
 18 49  1  0
 19 50  1  0
 19 51  1  0
 20 52  1  0
 21 53  1  0
 21 54  1  0
 22 55  1  0
 22 56  1  0
 23 57  1  0
 24 58  1  0
 24 59  1  0
 25 60  1  0
 25 61  1  0
 26 62  1  0
 26 63  1  0
 27 64  1  0
 27 65  1  0
 27 66  1  0
M  END
