
     RDKit          3D

 16 15  0  0  0  0  0  0  0  0999 V2000
   -1.9419   -2.1141   -2.4915 C   0  0  0  0  0  0  0  0  0  0  0  0
   -2.6008   -1.4808   -1.6283 O   0  0  0  0  0  0  0  0  0  0  0  0
   -1.2077   -3.3264   -2.1296 C   0  0  0  0  0  0  0  0  0  0  0  0
   -1.9443   -1.6893   -3.8117 O   0  0  0  0  0  0  0  0  0  0  0  0
   -1.8179   -4.3503   -1.2037 C   0  0  0  0  0  0  0  0  0  0  0  0
    1.2268   -4.0791   -1.4513 O   0  0  0  0  0  0  0  0  0  0  0  0
   -0.7805   -4.9520   -0.2443 C   0  0  0  0  0  0  0  0  0  0  0  0
    1.0969   -6.2885   -0.8801 O   0  0  0  0  0  0  0  0  0  0  0  0
    0.5511   -5.1525   -0.8992 C   0  0  0  0  0  0  0  0  0  0  0  0
   -0.0766   -3.5194   -2.6516 O   0  0  0  0  0  0  0  0  0  0  0  0
   -2.4564   -2.1997   -4.5214 H   0  0  0  0  0  0  0  0  0  0  0  0
   -2.2681   -5.1599   -1.8182 H   0  0  0  0  0  0  0  0  0  0  0  0
   -2.6247   -3.8630   -0.6138 H   0  0  0  0  0  0  0  0  0  0  0  0
    2.1409   -4.1995   -1.8711 H   0  0  0  0  0  0  0  0  0  0  0  0
   -1.1496   -5.9338    0.1269 H   0  0  0  0  0  0  0  0  0  0  0  0
   -0.6426   -4.2768    0.6276 H   0  0  0  0  0  0  0  0  0  0  0  0
  2  1  2  0
  3  1  1  0
  4  1  1  0
  5  3  1  0
  7  5  1  0
  9  8  2  0
  9  7  1  0
  9  6  1  0
 10  3  2  0
  4 11  1  0
  5 12  1  0
  5 13  1  0
  6 14  1  0
  7 15  1  0
  7 16  1  0
M  END
