
     RDKit          3D

 26 25  0  0  0  0  0  0  0  0999 V2000
   65.6512   47.0214  -10.8073 P   0  0  2  0  0  0  0  0  0  0  0  0
   67.8674   48.1595   -9.6011 C   0  0  0  0  0  0  0  0  0  0  0  0
   66.7246   46.2792   -8.4684 N   0  0  0  0  0  0  0  0  0  0  0  0
   66.5338   47.4775   -9.2843 C   0  0  2  0  0  0  0  0  0  0  0  0
   65.9444   48.2413  -12.1419 C   0  0  0  0  0  0  0  0  0  0  0  0
   66.6688   47.6429  -13.3606 C   0  0  1  0  0  0  0  0  0  0  0  0
   68.0874   47.2054  -13.0821 C   0  0  0  0  0  0  0  0  0  0  0  0
   65.8616   46.4840  -13.9569 C   0  0  0  0  0  0  0  0  0  0  0  0
   64.0069   47.0410  -10.4581 O   0  0  0  0  0  0  0  0  0  0  0  0
   66.0430   45.6221  -11.2370 O   0  0  0  0  0  0  0  0  0  0  0  0
   68.6254   47.4554  -11.8283 O   0  0  0  0  0  0  0  0  0  0  0  0
   68.7722   46.5782  -13.9351 O   0  0  0  0  0  0  0  0  0  0  0  0
   68.1699   48.8105   -8.7538 H   0  0  0  0  0  0  0  0  0  0  0  0
   68.6636   47.4043   -9.7732 H   0  0  0  0  0  0  0  0  0  0  0  0
   67.7714   48.7930  -10.5077 H   0  0  0  0  0  0  0  0  0  0  0  0
   67.7508   46.1256   -8.3365 H   0  0  0  0  0  0  0  0  0  0  0  0
   66.3490   45.4479   -8.9812 H   0  0  0  0  0  0  0  0  0  0  0  0
   65.8928   48.1917   -8.7233 H   0  0  0  0  0  0  0  0  0  0  0  0
   66.5509   49.0745  -11.7283 H   0  0  0  0  0  0  0  0  0  0  0  0
   64.9651   48.6641  -12.4534 H   0  0  0  0  0  0  0  0  0  0  0  0
   66.7187   48.4390  -14.1361 H   0  0  0  0  0  0  0  0  0  0  0  0
   65.7808   45.6536  -13.2232 H   0  0  0  0  0  0  0  0  0  0  0  0
   66.3527   46.1029  -14.8782 H   0  0  0  0  0  0  0  0  0  0  0  0
   64.8333   46.8198  -14.2109 H   0  0  0  0  0  0  0  0  0  0  0  0
   63.6515   46.1973  -10.8360 H   0  0  0  0  0  0  0  0  0  0  0  0
   69.5779   47.7851  -11.7271 H   0  0  0  0  0  0  0  0  0  0  0  0
  4  3  1  0
  4  2  1  0
  4  1  1  0
  5  1  1  0
  6  5  1  0
  7  6  1  0
  6  8  1  0
  1  9  1  1
 10  1  2  0
 11  7  1  0
 12  7  2  0
  2 13  1  0
  2 14  1  0
  2 15  1  0
  3 16  1  0
  3 17  1  0
  4 18  1  1
  5 19  1  0
  5 20  1  0
  6 21  1  6
  8 22  1  0
  8 23  1  0
  8 24  1  0
  9 25  1  0
 11 26  1  0
M  END
