
     RDKit          3D

 38 40  0  0  0  0  0  0  0  0999 V2000
   45.8671   22.6407   42.1757 C   0  0  0  0  0  0  0  0  0  0  0  0
   46.7012   23.7568   42.0329 O   0  0  0  0  0  0  0  0  0  0  0  0
   44.5347   23.0407   42.8563 C   0  0  1  0  0  0  0  0  0  0  0  0
   43.3839   23.0855   41.9301 N   0  0  0  0  0  0  0  0  0  0  0  0
   44.1320   21.9814   43.9173 C   0  0  1  0  0  0  0  0  0  0  0  0
   43.7988   22.5660   45.1578 O   0  0  0  0  0  0  0  0  0  0  0  0
   42.9421   21.2107   43.3073 C   0  0  1  0  0  0  0  0  0  0  0  0
   41.7613   21.3806   44.0593 O   0  0  0  0  0  0  0  0  0  0  0  0
   42.7822   21.7587   41.8930 C   0  0  0  0  0  0  0  0  0  0  0  0
   43.4401   23.8565   40.6629 C   0  0  0  0  0  0  0  0  0  0  0  0
   42.2973   21.8517   38.7891 N   0  0  0  0  0  0  0  0  0  0  0  0
   42.4275   20.3726   36.9143 C   0  0  0  0  0  0  0  0  0  0  0  0
   43.7504   20.7547   36.7042 C   0  0  0  0  0  0  0  0  0  0  0  0
   44.3451   21.6928   37.5564 C   0  0  0  0  0  0  0  0  0  0  0  0
   45.6696   22.0877   37.3559 C   0  0  0  0  0  0  0  0  0  0  0  0
   46.2447   23.0315   38.1994 C   0  0  0  0  0  0  0  0  0  0  0  0
   45.5108   23.5840   39.2481 C   0  0  0  0  0  0  0  0  0  0  0  0
   44.1899   23.1866   39.5066 C   0  0  0  0  0  0  0  0  0  0  0  0
   43.5912   22.2425   38.6270 C   0  0  0  0  0  0  0  0  0  0  0  0
   41.7100   20.9393   37.9691 C   0  0  0  0  0  0  0  0  0  0  0  0
   46.4064   21.8977   42.8057 H   0  0  0  0  0  0  0  0  0  0  0  0
   45.6744   22.1711   41.1866 H   0  0  0  0  0  0  0  0  0  0  0  0
   47.6269   23.4333   42.1879 H   0  0  0  0  0  0  0  0  0  0  0  0
   44.6629   24.0372   43.3343 H   0  0  0  0  0  0  0  0  0  0  0  0
   44.9514   21.2549   44.1099 H   0  0  0  0  0  0  0  0  0  0  0  0
   44.4743   23.2625   45.3677 H   0  0  0  0  0  0  0  0  0  0  0  0
   43.1718   20.1233   43.2615 H   0  0  0  0  0  0  0  0  0  0  0  0
   41.6490   20.5909   44.6513 H   0  0  0  0  0  0  0  0  0  0  0  0
   41.7112   21.8196   41.6060 H   0  0  0  0  0  0  0  0  0  0  0  0
   43.3260   21.0994   41.1808 H   0  0  0  0  0  0  0  0  0  0  0  0
   42.3961   24.0427   40.3339 H   0  0  0  0  0  0  0  0  0  0  0  0
   43.8560   24.8684   40.8577 H   0  0  0  0  0  0  0  0  0  0  0  0
   41.9583   19.6470   36.2626 H   0  0  0  0  0  0  0  0  0  0  0  0
   44.3052   20.3188   35.8817 H   0  0  0  0  0  0  0  0  0  0  0  0
   46.2553   21.6763   36.5423 H   0  0  0  0  0  0  0  0  0  0  0  0
   47.2633   23.3550   38.0272 H   0  0  0  0  0  0  0  0  0  0  0  0
   45.9773   24.3601   39.8303 H   0  0  0  0  0  0  0  0  0  0  0  0
   40.6803   20.6535   38.1367 H   0  0  0  0  0  0  0  0  0  0  0  0
  2  1  1  0
  3  1  1  0
  4  3  1  0
  5  3  1  0
  5  6  1  0
  7  5  1  0
  7  8  1  0
  9  7  1  0
  9  4  1  0
 10  4  1  0
 13 12  1  0
 14 13  2  0
 15 14  1  0
 16 15  2  0
 17 16  1  0
 18 17  2  0
 18 10  1  0
 19 11  2  0
 19 18  1  0
 19 14  1  0
 20 12  2  0
 20 11  1  0
  1 21  1  0
  1 22  1  0
  2 23  1  0
  3 24  1  1
  5 25  1  1
  6 26  1  0
  7 27  1  6
  8 28  1  0
  9 29  1  0
  9 30  1  0
 10 31  1  0
 10 32  1  0
 12 33  1  0
 13 34  1  0
 15 35  1  0
 16 36  1  0
 17 37  1  0
 20 38  1  0
M  END
