
     RDKit          3D

 38 40  0  0  0  0  0  0  0  0999 V2000
   26.3484   25.3753   21.2512 C   0  0  0  0  0  0  0  0  0  0  0  0
   27.0524   26.3578   20.5436 O   0  0  0  0  0  0  0  0  0  0  0  0
   26.9856   23.9828   21.0292 C   0  0  1  0  0  0  0  0  0  0  0  0
   28.2483   23.7874   21.7652 N   0  0  0  0  0  0  0  0  0  0  0  0
   26.0516   22.8666   21.5686 C   0  0  1  0  0  0  0  0  0  0  0  0
   25.7790   21.8811   20.5970 O   0  0  0  0  0  0  0  0  0  0  0  0
   26.7643   22.2866   22.8130 C   0  0  1  0  0  0  0  0  0  0  0  0
   27.2122   20.9644   22.6113 O   0  0  0  0  0  0  0  0  0  0  0  0
   27.9390   23.2204   23.0714 C   0  0  0  0  0  0  0  0  0  0  0  0
   29.3730   24.7422   21.6391 C   0  0  0  0  0  0  0  0  0  0  0  0
   30.5580   24.9428   24.3170 N   0  0  0  0  0  0  0  0  0  0  0  0
   31.0392   26.0903   26.3537 C   0  0  0  0  0  0  0  0  0  0  0  0
   30.3711   27.2160   25.8759 C   0  0  0  0  0  0  0  0  0  0  0  0
   29.7853   27.1907   24.6050 C   0  0  0  0  0  0  0  0  0  0  0  0
   29.1126   28.3108   24.1076 C   0  0  0  0  0  0  0  0  0  0  0  0
   28.5481   28.2734   22.8357 C   0  0  0  0  0  0  0  0  0  0  0  0
   28.6431   27.1215   22.0560 C   0  0  0  0  0  0  0  0  0  0  0  0
   29.2833   25.9690   22.5384 C   0  0  0  0  0  0  0  0  0  0  0  0
   29.8821   26.0155   23.8214 C   0  0  0  0  0  0  0  0  0  0  0  0
   31.1244   24.9524   25.5513 C   0  0  0  0  0  0  0  0  0  0  0  0
   25.2994   25.3705   20.8774 H   0  0  0  0  0  0  0  0  0  0  0  0
   26.3292   25.6226   22.3356 H   0  0  0  0  0  0  0  0  0  0  0  0
   27.4195   25.9092   19.7377 H   0  0  0  0  0  0  0  0  0  0  0  0
   27.1694   23.8445   19.9406 H   0  0  0  0  0  0  0  0  0  0  0  0
   25.0732   23.2797   21.8992 H   0  0  0  0  0  0  0  0  0  0  0  0
   25.7504   20.9969   21.0470 H   0  0  0  0  0  0  0  0  0  0  0  0
   26.0796   22.2936   23.6894 H   0  0  0  0  0  0  0  0  0  0  0  0
   27.9471   20.9803   21.9431 H   0  0  0  0  0  0  0  0  0  0  0  0
   28.8032   22.6537   23.4743 H   0  0  0  0  0  0  0  0  0  0  0  0
   27.6366   24.0195   23.7842 H   0  0  0  0  0  0  0  0  0  0  0  0
   30.3097   24.1979   21.8831 H   0  0  0  0  0  0  0  0  0  0  0  0
   29.4973   25.0462   20.5780 H   0  0  0  0  0  0  0  0  0  0  0  0
   31.4927   26.1003   27.3364 H   0  0  0  0  0  0  0  0  0  0  0  0
   30.3106   28.1013   26.4978 H   0  0  0  0  0  0  0  0  0  0  0  0
   29.0328   29.2168   24.6967 H   0  0  0  0  0  0  0  0  0  0  0  0
   28.0470   29.1492   22.4438 H   0  0  0  0  0  0  0  0  0  0  0  0
   28.2427   27.1548   21.0567 H   0  0  0  0  0  0  0  0  0  0  0  0
   31.6468   24.0753   25.9089 H   0  0  0  0  0  0  0  0  0  0  0  0
  2  1  1  0
  3  1  1  0
  4  3  1  0
  5  3  1  0
  5  6  1  0
  7  5  1  0
  7  8  1  0
  9  7  1  0
  9  4  1  0
 10  4  1  0
 13 12  1  0
 14 13  2  0
 15 14  1  0
 16 15  2  0
 17 16  1  0
 18 17  2  0
 18 10  1  0
 19 18  1  0
 19 14  1  0
 19 11  2  0
 20 12  2  0
 20 11  1  0
  1 21  1  0
  1 22  1  0
  2 23  1  0
  3 24  1  6
  5 25  1  1
  6 26  1  0
  7 27  1  1
  8 28  1  0
  9 29  1  0
  9 30  1  0
 10 31  1  0
 10 32  1  0
 12 33  1  0
 13 34  1  0
 15 35  1  0
 16 36  1  0
 17 37  1  0
 20 38  1  0
M  END
