
     RDKit          3D

 15 15  0  0  0  0  0  0  0  0999 V2000
  -41.8332   -7.4715   11.4305 N   0  0  0  0  0  0  0  0  0  0  0  0
  -40.5810   -6.9611   11.3052 C   0  0  0  0  0  0  0  0  0  0  0  0
  -39.5491   -7.7465   10.7688 C   0  0  0  0  0  0  0  0  0  0  0  0
  -39.8364   -9.0574   10.3662 C   0  0  0  0  0  0  0  0  0  0  0  0
  -41.1289   -9.5606   10.5141 C   0  0  0  0  0  0  0  0  0  0  0  0
  -42.1247   -8.7431   11.0522 C   0  0  0  0  0  0  0  0  0  0  0  0
  -38.1889   -7.2028   10.6305 C   0  0  0  0  0  0  0  0  0  0  0  0
  -37.1535   -7.9886   10.0523 N   0  0  0  0  0  0  0  0  0  0  0  0
  -37.9345   -6.0332   11.0178 O   0  0  0  0  0  0  0  0  0  0  0  0
  -40.3980   -5.9388   11.6093 H   0  0  0  0  0  0  0  0  0  0  0  0
  -39.0624   -9.6907    9.9501 H   0  0  0  0  0  0  0  0  0  0  0  0
  -41.3587  -10.5740   10.2113 H   0  0  0  0  0  0  0  0  0  0  0  0
  -43.1319   -9.1206   11.1678 H   0  0  0  0  0  0  0  0  0  0  0  0
  -36.5819   -8.6429   10.6311 H   0  0  0  0  0  0  0  0  0  0  0  0
  -36.9830   -7.9545    9.0226 H   0  0  0  0  0  0  0  0  0  0  0  0
  2  1  2  0
  3  2  1  0
  4  3  2  0
  5  4  1  0
  6  5  2  0
  6  1  1  0
  7  3  1  0
  8  7  1  0
  9  7  2  0
  2 10  1  0
  4 11  1  0
  5 12  1  0
  6 13  1  0
  8 14  1  0
  8 15  1  0
M  END
