
     RDKit          3D

 49 51  0  0  0  0  0  0  0  0999 V2000
   -5.3306   -4.9362   16.4847 P   0  0  2  0  0  0  0  0  0  0  0  0
   -6.7755   -7.3089   17.6569 P   0  0  2  0  0  0  0  0  0  0  0  0
   -8.6730   -6.8886   19.6653 P   0  0  0  0  0  0  0  0  0  0  0  0
   -5.5527   -5.2709   13.9191 C   0  0  0  0  0  0  0  0  0  0  0  0
   -5.6805   -5.9128   15.1569 O   0  0  0  0  0  0  0  0  0  0  0  0
   -4.7422   -6.2203   13.0346 C   0  0  1  0  0  0  0  0  0  0  0  0
   -3.7168   -5.4858   12.3931 O   0  0  0  0  0  0  0  0  0  0  0  0
   -4.0704   -7.3341   13.8494 C   0  0  1  0  0  0  0  0  0  0  0  0
   -4.8934   -8.4577   14.0317 O   0  0  0  0  0  0  0  0  0  0  0  0
   -2.8698   -7.6518   12.9903 C   0  0  1  0  0  0  0  0  0  0  0  0
   -3.2254   -8.5754   11.9873 O   0  0  0  0  0  0  0  0  0  0  0  0
   -2.5573   -6.2975   12.3386 C   0  0  2  0  0  0  0  0  0  0  0  0
   -0.8594   -1.8881   14.4746 N   0  0  0  0  0  0  0  0  0  0  0  0
   -5.8849   -3.5342   16.3743 O   0  0  0  0  0  0  0  0  0  0  0  0
   -5.7939   -8.3628   17.2032 O   0  0  0  0  0  0  0  0  0  0  0  0
   -9.1420   -5.7941   18.7299 O   0  0  0  0  0  0  0  0  0  0  0  0
   -2.0643   -2.1421   13.8783 C   0  0  0  0  0  0  0  0  0  0  0  0
   -3.6546   -4.9032   16.5378 O   0  0  0  0  0  0  0  0  0  0  0  0
   -8.0052   -7.1277   16.5297 O   0  0  0  0  0  0  0  0  0  0  0  0
   -9.9403   -7.9402   19.9956 O   0  0  0  0  0  0  0  0  0  0  0  0
   -5.8833   -5.7659   17.9937 C   0  0  0  0  0  0  0  0  0  0  0  0
   -2.3356   -3.3773   13.3571 N   0  0  0  0  0  0  0  0  0  0  0  0
   -7.4159   -7.8747   19.1013 O   0  0  0  0  0  0  0  0  0  0  0  0
   -8.1523   -6.2070   21.1101 O   0  0  0  0  0  0  0  0  0  0  0  0
   -1.3824   -4.3374   13.4476 C   0  0  0  0  0  0  0  0  0  0  0  0
   -0.1870   -4.1086   14.0357 C   0  0  0  0  0  0  0  0  0  0  0  0
    0.0978   -2.8544   14.5678 C   0  0  0  0  0  0  0  0  0  0  0  0
    1.3409   -2.5710   15.1938 N   0  0  0  0  0  0  0  0  0  0  0  0
    0.5703   -5.2192   14.0025 N   0  0  0  0  0  0  0  0  0  0  0  0
   -0.2287   -6.1182   13.3668 C   0  0  0  0  0  0  0  0  0  0  0  0
   -1.4346   -5.6055   13.0004 N   0  0  0  0  0  0  0  0  0  0  0  0
   -6.5081   -5.0563   13.4263 H   0  0  0  0  0  0  0  0  0  0  0  0
   -4.9974   -4.3171   14.0505 H   0  0  0  0  0  0  0  0  0  0  0  0
   -5.4092   -6.6578   12.2575 H   0  0  0  0  0  0  0  0  0  0  0  0
   -3.7221   -6.9866   14.8440 H   0  0  0  0  0  0  0  0  0  0  0  0
   -5.4747   -8.5362   13.2329 H   0  0  0  0  0  0  0  0  0  0  0  0
   -2.0124   -8.0293   13.5966 H   0  0  0  0  0  0  0  0  0  0  0  0
   -4.2076   -8.4994   11.8640 H   0  0  0  0  0  0  0  0  0  0  0  0
   -2.2965   -6.4573   11.2687 H   0  0  0  0  0  0  0  0  0  0  0  0
   -2.8080   -1.3595   13.8176 H   0  0  0  0  0  0  0  0  0  0  0  0
   -3.4355   -4.1848   17.1835 H   0  0  0  0  0  0  0  0  0  0  0  0
   -8.4152   -8.0261   16.4552 H   0  0  0  0  0  0  0  0  0  0  0  0
  -10.3711   -8.1009   19.1184 H   0  0  0  0  0  0  0  0  0  0  0  0
   -5.0040   -5.9831   18.6346 H   0  0  0  0  0  0  0  0  0  0  0  0
   -6.5478   -5.0713   18.5460 H   0  0  0  0  0  0  0  0  0  0  0  0
   -8.4189   -5.2550   21.0512 H   0  0  0  0  0  0  0  0  0  0  0  0
    1.3661   -2.2225   16.1777 H   0  0  0  0  0  0  0  0  0  0  0  0
    2.2427   -2.7054   14.6845 H   0  0  0  0  0  0  0  0  0  0  0  0
    0.0767   -7.1373   13.1871 H   0  0  0  0  0  0  0  0  0  0  0  0
  5  4  1  0
  1  5  1  6
  6  4  1  0
  7  6  1  0
  8  6  1  0
  8  9  1  0
 10  8  1  0
 10 11  1  0
 12 10  1  0
 12  7  1  0
 14  1  2  0
 15  2  2  0
 16  3  2  0
 17 13  2  0
 18  1  1  0
  2 19  1  6
 20  3  1  0
 21  2  1  0
 21  1  1  0
 22 17  1  0
 23  3  1  0
 23  2  1  0
 24  3  1  0
 25 22  2  0
 26 25  1  0
 27 26  2  0
 27 13  1  0
 28 27  1  0
 29 26  1  0
 30 29  2  0
 12 31  1  0
 31 30  1  0
 31 25  1  0
  4 32  1  0
  4 33  1  0
  6 34  1  6
  8 35  1  1
  9 36  1  0
 10 37  1  1
 11 38  1  0
 12 39  1  6
 17 40  1  0
 18 41  1  0
 19 42  1  0
 20 43  1  0
 21 44  1  0
 21 45  1  0
 24 46  1  0
 28 47  1  0
 28 48  1  0
 30 49  1  0
M  END
