
     RDKit          3D

 49 51  0  0  0  0  0  0  0  0999 V2000
   13.8172   14.2906   21.0033 P   0  0  2  0  0  0  0  0  0  0  0  0
   13.9689   16.5330   23.0316 P   0  0  2  0  0  0  0  0  0  0  0  0
   16.1202   15.7590   24.6442 P   0  0  0  0  0  0  0  0  0  0  0  0
   13.5259   16.2567   19.3396 C   0  0  0  0  0  0  0  0  0  0  0  0
   12.8671   15.1533   19.9025 O   0  0  0  0  0  0  0  0  0  0  0  0
   12.4495   17.2636   18.9262 C   0  0  1  0  0  0  0  0  0  0  0  0
   11.5871   16.6583   17.9837 O   0  0  0  0  0  0  0  0  0  0  0  0
   11.5869   17.7189   20.1111 C   0  0  1  0  0  0  0  0  0  0  0  0
   12.1292   18.7936   20.8338 O   0  0  0  0  0  0  0  0  0  0  0  0
   10.3111   18.1109   19.4052 C   0  0  1  0  0  0  0  0  0  0  0  0
   10.4185   19.4234   18.9038 O   0  0  0  0  0  0  0  0  0  0  0  0
   10.2745   17.1269   18.2298 C   0  0  2  0  0  0  0  0  0  0  0  0
    6.0229   14.5320   16.8290 N   0  0  0  0  0  0  0  0  0  0  0  0
   15.2985   14.3537   20.7042 O   0  0  0  0  0  0  0  0  0  0  0  0
   12.7580   17.4329   23.0911 O   0  0  0  0  0  0  0  0  0  0  0  0
   16.6613   15.2554   23.3229 O   0  0  0  0  0  0  0  0  0  0  0  0
    6.5383   15.6802   16.2911 C   0  0  0  0  0  0  0  0  0  0  0  0
   13.2766   12.7079   20.8877 O   0  0  0  0  0  0  0  0  0  0  0  0
   15.0754   17.1071   21.9088 O   0  0  0  0  0  0  0  0  0  0  0  0
   17.2139   16.8299   25.3395 O   0  0  0  0  0  0  0  0  0  0  0  0
   13.4302   14.8350   22.6863 C   0  0  0  0  0  0  0  0  0  0  0  0
    7.6795   16.2352   16.8010 N   0  0  0  0  0  0  0  0  0  0  0  0
   14.6458   16.5922   24.5698 O   0  0  0  0  0  0  0  0  0  0  0  0
   15.9044   14.4679   25.7011 O   0  0  0  0  0  0  0  0  0  0  0  0
    8.2782   15.6172   17.8491 C   0  0  0  0  0  0  0  0  0  0  0  0
    7.7886   14.4812   18.3900 C   0  0  0  0  0  0  0  0  0  0  0  0
    6.6311   13.9112   17.8791 C   0  0  0  0  0  0  0  0  0  0  0  0
    6.0836   12.7203   18.4256 N   0  0  0  0  0  0  0  0  0  0  0  0
    8.5708   14.0639   19.3992 N   0  0  0  0  0  0  0  0  0  0  0  0
    9.5497   15.0029   19.4352 C   0  0  0  0  0  0  0  0  0  0  0  0
    9.3915   15.9836   18.5050 N   0  0  0  0  0  0  0  0  0  0  0  0
   14.2280   16.7560   20.0153 H   0  0  0  0  0  0  0  0  0  0  0  0
   14.0873   15.9270   18.4389 H   0  0  0  0  0  0  0  0  0  0  0  0
   12.9394   18.1424   18.4481 H   0  0  0  0  0  0  0  0  0  0  0  0
   11.3897   16.8966   20.8250 H   0  0  0  0  0  0  0  0  0  0  0  0
   13.1071   18.6499   20.9079 H   0  0  0  0  0  0  0  0  0  0  0  0
    9.4192   18.0067   20.0675 H   0  0  0  0  0  0  0  0  0  0  0  0
   10.1082   20.0310   19.6250 H   0  0  0  0  0  0  0  0  0  0  0  0
    9.9115   17.6522   17.3184 H   0  0  0  0  0  0  0  0  0  0  0  0
    6.0387   16.1528   15.4568 H   0  0  0  0  0  0  0  0  0  0  0  0
   13.4368   12.4536   19.9439 H   0  0  0  0  0  0  0  0  0  0  0  0
   15.1149   18.0837   22.0683 H   0  0  0  0  0  0  0  0  0  0  0  0
   17.3570   16.4855   26.2570 H   0  0  0  0  0  0  0  0  0  0  0  0
   12.3358   14.7563   22.8514 H   0  0  0  0  0  0  0  0  0  0  0  0
   13.9325   14.1460   23.3950 H   0  0  0  0  0  0  0  0  0  0  0  0
   15.5786   14.8802   26.5406 H   0  0  0  0  0  0  0  0  0  0  0  0
    5.2107   12.3117   18.0239 H   0  0  0  0  0  0  0  0  0  0  0  0
    6.5401   12.2371   19.2310 H   0  0  0  0  0  0  0  0  0  0  0  0
   10.3672   14.9453   20.1330 H   0  0  0  0  0  0  0  0  0  0  0  0
  1  5  1  6
  5  4  1  0
  6  4  1  0
  7  6  1  0
  8  6  1  0
  8  9  1  0
 10  8  1  0
 10 11  1  0
 12 10  1  0
 12  7  1  0
 14  1  2  0
 15  2  2  0
 16  3  2  0
 17 13  2  0
 18  1  1  0
  2 19  1  6
 20  3  1  0
 21  1  1  0
 21  2  1  0
 22 17  1  0
 23  2  1  0
 23  3  1  0
 24  3  1  0
 25 22  2  0
 26 25  1  0
 27 26  2  0
 27 13  1  0
 28 27  1  0
 29 26  1  0
 30 29  2  0
 31 30  1  0
 31 25  1  0
 12 31  1  0
  4 32  1  0
  4 33  1  0
  6 34  1  6
  8 35  1  1
  9 36  1  0
 10 37  1  1
 11 38  1  0
 12 39  1  6
 17 40  1  0
 18 41  1  0
 19 42  1  0
 20 43  1  0
 21 44  1  0
 21 45  1  0
 24 46  1  0
 28 47  1  0
 28 48  1  0
 30 49  1  0
M  END
