
     RDKit          3D

 49 51  0  0  0  0  0  0  0  0999 V2000
   -6.1175   -5.1635   16.0634 P   0  0  2  0  0  0  0  0  0  0  0  0
   -6.4834   -8.1078   16.6007 P   0  0  2  0  0  0  0  0  0  0  0  0
   -8.2944   -8.3417   18.7164 P   0  0  0  0  0  0  0  0  0  0  0  0
   -5.9067   -5.8943   13.5804 C   0  0  0  0  0  0  0  0  0  0  0  0
   -5.1978   -5.3657   14.6660 O   0  0  0  0  0  0  0  0  0  0  0  0
   -4.8574   -6.5071   12.6510 C   0  0  1  0  0  0  0  0  0  0  0  0
   -4.4755   -5.5407   11.6905 O   0  0  0  0  0  0  0  0  0  0  0  0
   -3.5913   -6.9278   13.4098 C   0  0  1  0  0  0  0  0  0  0  0  0
   -3.6660   -8.2311   13.9283 O   0  0  0  0  0  0  0  0  0  0  0  0
   -2.5422   -6.8133   12.3297 C   0  0  1  0  0  0  0  0  0  0  0  0
   -2.5019   -7.9987   11.5690 O   0  0  0  0  0  0  0  0  0  0  0  0
   -3.0850   -5.6736   11.4561 C   0  0  2  0  0  0  0  0  0  0  0  0
   -0.5912   -1.5930    9.4516 N   0  0  0  0  0  0  0  0  0  0  0  0
   -7.5954   -4.9845   15.8009 O   0  0  0  0  0  0  0  0  0  0  0  0
   -5.3963   -8.9067   15.9226 O   0  0  0  0  0  0  0  0  0  0  0  0
   -8.9650   -7.1754   18.0215 O   0  0  0  0  0  0  0  0  0  0  0  0
   -1.0732   -2.7014    8.8104 C   0  0  0  0  0  0  0  0  0  0  0  0
   -5.4769   -3.7887   16.7793 O   0  0  0  0  0  0  0  0  0  0  0  0
   -7.7928   -7.9057   15.5711 O   0  0  0  0  0  0  0  0  0  0  0  0
   -9.3833   -9.6093   18.8855 O   0  0  0  0  0  0  0  0  0  0  0  0
   -5.7920   -6.5386   17.1922 C   0  0  0  0  0  0  0  0  0  0  0  0
   -1.7036   -3.6918    9.5124 N   0  0  0  0  0  0  0  0  0  0  0  0
   -6.9509   -9.0144   17.9334 O   0  0  0  0  0  0  0  0  0  0  0  0
   -7.7848   -7.8661   20.2453 O   0  0  0  0  0  0  0  0  0  0  0  0
   -1.8369   -3.5449   10.8538 C   0  0  0  0  0  0  0  0  0  0  0  0
   -1.3713   -2.4565   11.5062 C   0  0  0  0  0  0  0  0  0  0  0  0
   -0.7277   -1.4444   10.7999 C   0  0  0  0  0  0  0  0  0  0  0  0
   -0.2231   -0.2844   11.4458 N   0  0  0  0  0  0  0  0  0  0  0  0
   -1.6363   -2.5510   12.8211 N   0  0  0  0  0  0  0  0  0  0  0  0
   -2.2793   -3.7456   12.9209 C   0  0  0  0  0  0  0  0  0  0  0  0
   -2.4099   -4.3905   11.7298 N   0  0  0  0  0  0  0  0  0  0  0  0
   -6.6325   -6.6687   13.8551 H   0  0  0  0  0  0  0  0  0  0  0  0
   -6.4418   -5.0759   13.0518 H   0  0  0  0  0  0  0  0  0  0  0  0
   -5.3004   -7.3816   12.1227 H   0  0  0  0  0  0  0  0  0  0  0  0
   -3.3368   -6.2330   14.2368 H   0  0  0  0  0  0  0  0  0  0  0  0
   -4.5351   -8.3180   14.3966 H   0  0  0  0  0  0  0  0  0  0  0  0
   -1.5368   -6.5726   12.7499 H   0  0  0  0  0  0  0  0  0  0  0  0
   -1.6665   -8.4720   11.8213 H   0  0  0  0  0  0  0  0  0  0  0  0
   -2.9378   -5.9321   10.3838 H   0  0  0  0  0  0  0  0  0  0  0  0
   -0.9538   -2.7958    7.7400 H   0  0  0  0  0  0  0  0  0  0  0  0
   -5.6219   -3.0668   16.1168 H   0  0  0  0  0  0  0  0  0  0  0  0
   -8.0797   -8.8255   15.3423 H   0  0  0  0  0  0  0  0  0  0  0  0
  -10.1056   -9.2478   19.4587 H   0  0  0  0  0  0  0  0  0  0  0  0
   -4.6963   -6.6485   17.3280 H   0  0  0  0  0  0  0  0  0  0  0  0
   -6.2369   -6.2898   18.1766 H   0  0  0  0  0  0  0  0  0  0  0  0
   -8.1114   -8.5765   20.8531 H   0  0  0  0  0  0  0  0  0  0  0  0
   -0.7258    0.6265   11.3578 H   0  0  0  0  0  0  0  0  0  0  0  0
    0.6518   -0.3230   12.0147 H   0  0  0  0  0  0  0  0  0  0  0  0
   -2.6512   -4.1254   13.8598 H   0  0  0  0  0  0  0  0  0  0  0  0
  5  4  1  0
  1  5  1  6
  6  4  1  0
  7  6  1  0
  8  6  1  0
  8  9  1  0
 10  8  1  0
 10 11  1  0
 12 10  1  0
 12  7  1  0
 14  1  2  0
 15  2  2  0
 16  3  2  0
 17 13  2  0
 18  1  1  0
  2 19  1  6
 20  3  1  0
 21  2  1  0
 21  1  1  0
 22 17  1  0
 23  3  1  0
 23  2  1  0
 24  3  1  0
 25 22  2  0
 26 25  1  0
 27 26  2  0
 27 13  1  0
 28 27  1  0
 29 26  1  0
 30 29  2  0
 12 31  1  0
 31 30  1  0
 31 25  1  0
  4 32  1  0
  4 33  1  0
  6 34  1  6
  8 35  1  1
  9 36  1  0
 10 37  1  1
 11 38  1  0
 12 39  1  6
 17 40  1  0
 18 41  1  0
 19 42  1  0
 20 43  1  0
 21 44  1  0
 21 45  1  0
 24 46  1  0
 28 47  1  0
 28 48  1  0
 30 49  1  0
M  END
