
     RDKit          3D

 38 40  0  0  0  0  0  0  0  0999 V2000
   24.1668    8.8619   19.5299 P   0  0  0  0  0  0  0  0  0  0  0  0
   23.8788    9.5170   20.8542 O   0  0  0  0  0  0  0  0  0  0  0  0
   25.1007    9.8381   18.5444 O   0  0  0  0  0  0  0  0  0  0  0  0
   24.9449    7.3954   19.7784 O   0  0  0  0  0  0  0  0  0  0  0  0
   22.8220    6.2939   14.9930 C   0  0  0  0  0  0  0  0  0  0  0  0
   22.7307    4.9682   15.4509 O   0  0  0  0  0  0  0  0  0  0  0  0
   22.5685    7.2609   16.1436 C   0  0  1  0  0  0  0  0  0  0  0  0
   21.1823    7.3009   16.4101 O   0  0  0  0  0  0  0  0  0  0  0  0
   23.2651    6.7933   17.4117 C   0  0  1  0  0  0  0  0  0  0  0  0
   24.6170    7.1716   17.4654 O   0  0  0  0  0  0  0  0  0  0  0  0
   22.3745    7.3779   18.4869 C   0  0  1  0  0  0  0  0  0  0  0  0
   22.6943    8.7171   18.7441 O   0  0  0  0  0  0  0  0  0  0  0  0
   21.0062    7.4072   17.8063 C   0  0  2  0  0  0  0  0  0  0  0  0
   20.3782    2.4632   19.2304 N   0  0  0  0  0  0  0  0  0  0  0  0
   21.5277    3.1012   18.8576 C   0  0  0  0  0  0  0  0  0  0  0  0
   22.7430    2.3792   18.7745 N   0  0  0  0  0  0  0  0  0  0  0  0
   21.5064    4.4176   18.5256 N   0  0  0  0  0  0  0  0  0  0  0  0
   20.3273    5.0748   18.5780 C   0  0  0  0  0  0  0  0  0  0  0  0
   19.1775    4.4767   18.9545 C   0  0  0  0  0  0  0  0  0  0  0  0
   19.1908    3.1284   19.2946 C   0  0  0  0  0  0  0  0  0  0  0  0
   18.1529    2.5273   19.6661 O   0  0  0  0  0  0  0  0  0  0  0  0
   18.1548    5.3563   18.9344 N   0  0  0  0  0  0  0  0  0  0  0  0
   18.7577    6.5023   18.5191 C   0  0  0  0  0  0  0  0  0  0  0  0
   20.0925    6.3632   18.2949 N   0  0  0  0  0  0  0  0  0  0  0  0
   24.5387   10.0065   17.7463 H   0  0  0  0  0  0  0  0  0  0  0  0
   25.0142    6.9904   18.8773 H   0  0  0  0  0  0  0  0  0  0  0  0
   23.8412    6.4757   14.5842 H   0  0  0  0  0  0  0  0  0  0  0  0
   22.0789    6.4719   14.1838 H   0  0  0  0  0  0  0  0  0  0  0  0
   23.5158    4.8270   16.0409 H   0  0  0  0  0  0  0  0  0  0  0  0
   22.9125    8.2811   15.8595 H   0  0  0  0  0  0  0  0  0  0  0  0
   23.2343    5.6920   17.5109 H   0  0  0  0  0  0  0  0  0  0  0  0
   25.1429    6.3327   17.5386 H   0  0  0  0  0  0  0  0  0  0  0  0
   22.3421    6.7178   19.3736 H   0  0  0  0  0  0  0  0  0  0  0  0
   20.5166    8.3895   18.0019 H   0  0  0  0  0  0  0  0  0  0  0  0
   20.4088    1.4477   19.4773 H   0  0  0  0  0  0  0  0  0  0  0  0
   23.6206    2.8589   18.4740 H   0  0  0  0  0  0  0  0  0  0  0  0
   22.7795    1.3629   19.0112 H   0  0  0  0  0  0  0  0  0  0  0  0
   18.2214    7.4318   18.3775 H   0  0  0  0  0  0  0  0  0  0  0  0
  2  1  2  0
  3  1  1  0
  4  1  1  0
  6  5  1  0
  7  5  1  0
  8  7  1  0
  9  7  1  0
  9 10  1  0
 11  9  1  0
 11 12  1  0
 12  1  1  0
 13  8  1  0
 13 11  1  0
 15 14  1  0
 16 15  1  0
 17 15  2  0
 18 17  1  0
 19 18  2  0
 20 19  1  0
 20 14  1  0
 21 20  2  0
 22 19  1  0
 23 22  2  0
 24 23  1  0
 24 18  1  0
 13 24  1  0
  3 25  1  0
  4 26  1  0
  5 27  1  0
  5 28  1  0
  6 29  1  0
  7 30  1  6
  9 31  1  6
 10 32  1  0
 11 33  1  1
 13 34  1  6
 14 35  1  0
 16 36  1  0
 16 37  1  0
 23 38  1  0
M  END
