
     RDKit          3D

 38 39  0  0  0  0  0  0  0  0999 V2000
   17.9298   45.6310  103.1903 N   0  0  0  0  0  0  0  0  0  0  0  0
   18.8391   45.4848  104.3137 C   0  0  1  0  0  0  0  0  0  0  0  0
   18.0336   43.1412  102.7131 C   0  0  1  0  0  0  0  0  0  0  0  0
   19.7903   44.3395  104.0885 C   0  0  0  0  0  0  0  0  0  0  0  0
   20.9246   44.3334  104.6347 O   0  0  0  0  0  0  0  0  0  0  0  0
   19.5333   46.8377  104.4260 C   0  0  0  0  0  0  0  0  0  0  0  0
   17.0843   42.4002  103.6666 C   0  0  0  0  0  0  0  0  0  0  0  0
   18.5834   47.8369  103.7595 C   0  0  0  0  0  0  0  0  0  0  0  0
   16.8901   40.9523  103.2231 C   0  0  0  0  0  0  0  0  0  0  0  0
   17.6565   47.0189  102.8593 C   0  0  0  0  0  0  0  0  0  0  0  0
   15.5091   40.7426  102.5850 C   0  0  0  0  0  0  0  0  0  0  0  0
   14.7290   39.7873  103.3552 N   0  0  0  0  0  0  0  0  0  0  0  0
   15.1617   38.4423  103.5005 C   0  0  0  0  0  0  0  0  0  0  0  0
   14.9416   37.5985  102.5416 N   0  0  0  0  0  0  0  0  0  0  0  0
   15.8278   38.0233  104.6909 N   0  0  0  0  0  0  0  0  0  0  0  0
   17.4777   44.5084  102.4275 C   0  0  0  0  0  0  0  0  0  0  0  0
   19.3777   43.2221  103.2954 N   0  0  0  0  0  0  0  0  0  0  0  0
   16.5697   44.6441  101.5645 O   0  0  0  0  0  0  0  0  0  0  0  0
   18.2457   45.2836  105.2324 H   0  0  0  0  0  0  0  0  0  0  0  0
   18.1137   42.6209  101.7330 H   0  0  0  0  0  0  0  0  0  0  0  0
   19.7257   47.1067  105.4874 H   0  0  0  0  0  0  0  0  0  0  0  0
   20.4966   46.8376  103.8681 H   0  0  0  0  0  0  0  0  0  0  0  0
   17.4627   42.4316  104.7123 H   0  0  0  0  0  0  0  0  0  0  0  0
   16.0913   42.9056  103.6610 H   0  0  0  0  0  0  0  0  0  0  0  0
   17.9826   48.3548  104.5390 H   0  0  0  0  0  0  0  0  0  0  0  0
   19.1471   48.5962  103.1747 H   0  0  0  0  0  0  0  0  0  0  0  0
   17.0851   40.2810  104.0869 H   0  0  0  0  0  0  0  0  0  0  0  0
   17.6465   40.6911  102.4499 H   0  0  0  0  0  0  0  0  0  0  0  0
   16.5885   47.2573  103.0531 H   0  0  0  0  0  0  0  0  0  0  0  0
   17.9002   47.2048  101.7906 H   0  0  0  0  0  0  0  0  0  0  0  0
   14.9341   41.6913  102.4999 H   0  0  0  0  0  0  0  0  0  0  0  0
   15.6466   40.3462  101.5557 H   0  0  0  0  0  0  0  0  0  0  0  0
   13.7455   40.0068  103.6344 H   0  0  0  0  0  0  0  0  0  0  0  0
   14.4586   37.8937  101.6635 H   0  0  0  0  0  0  0  0  0  0  0  0
   15.2470   36.6031  102.6234 H   0  0  0  0  0  0  0  0  0  0  0  0
   15.5487   37.1402  105.1735 H   0  0  0  0  0  0  0  0  0  0  0  0
   16.5821   38.6001  105.1225 H   0  0  0  0  0  0  0  0  0  0  0  0
   20.0147   42.3985  103.2068 H   0  0  0  0  0  0  0  0  0  0  0  0
  2  1  1  0
  4  2  1  0
  5  4  2  0
  2  6  1  0
  3  7  1  0
  8  6  1  0
  9  7  1  0
 10  8  1  0
 10  1  1  0
 11  9  1  0
 12 11  1  0
 13 12  1  0
 14 13  2  0
 15 13  1  0
 16  3  1  0
 16  1  1  0
 17  4  1  0
 17  3  1  0
 18 16  2  0
  2 19  1  1
  3 20  1  6
  6 21  1  0
  6 22  1  0
  7 23  1  0
  7 24  1  0
  8 25  1  0
  8 26  1  0
  9 27  1  0
  9 28  1  0
 10 29  1  0
 10 30  1  0
 11 31  1  0
 11 32  1  0
 12 33  1  0
 14 34  1  0
 14 35  1  0
 15 36  1  0
 15 37  1  0
 17 38  1  0
M  CHG  1  14   1
M  END
