
     RDKit          3D

 38 39  0  0  0  0  0  0  0  0999 V2000
   18.0625   44.0243  102.1764 N   0  0  0  0  0  0  0  0  0  0  0  0
   18.9718   43.8780  103.2998 C   0  0  1  0  0  0  0  0  0  0  0  0
   18.1663   41.5345  101.6991 C   0  0  1  0  0  0  0  0  0  0  0  0
   19.9230   42.7328  103.0745 C   0  0  0  0  0  0  0  0  0  0  0  0
   21.0573   42.7266  103.6207 O   0  0  0  0  0  0  0  0  0  0  0  0
   19.6661   45.2309  103.4121 C   0  0  0  0  0  0  0  0  0  0  0  0
   17.2170   40.7935  102.6526 C   0  0  0  0  0  0  0  0  0  0  0  0
   18.7161   46.2302  102.7455 C   0  0  0  0  0  0  0  0  0  0  0  0
   16.9012   39.3954  102.1268 C   0  0  0  0  0  0  0  0  0  0  0  0
   17.7892   45.4121  101.8453 C   0  0  0  0  0  0  0  0  0  0  0  0
   15.4966   39.3335  101.5091 C   0  0  0  0  0  0  0  0  0  0  0  0
   14.6577   38.3956  102.2377 N   0  0  0  0  0  0  0  0  0  0  0  0
   13.4217   37.9516  101.6968 C   0  0  0  0  0  0  0  0  0  0  0  0
   13.2795   37.8872  100.4102 N   0  0  0  0  0  0  0  0  0  0  0  0
   12.3467   37.5843  102.5604 N   0  0  0  0  0  0  0  0  0  0  0  0
   17.6104   42.9017  101.4136 C   0  0  0  0  0  0  0  0  0  0  0  0
   19.5104   41.6154  102.2814 N   0  0  0  0  0  0  0  0  0  0  0  0
   16.7024   43.0373  100.5506 O   0  0  0  0  0  0  0  0  0  0  0  0
   18.3784   43.6769  104.2185 H   0  0  0  0  0  0  0  0  0  0  0  0
   18.2464   41.0142  100.7190 H   0  0  0  0  0  0  0  0  0  0  0  0
   19.8584   45.5000  104.4734 H   0  0  0  0  0  0  0  0  0  0  0  0
   20.6293   45.2309  102.8541 H   0  0  0  0  0  0  0  0  0  0  0  0
   17.6486   40.7279  103.6759 H   0  0  0  0  0  0  0  0  0  0  0  0
   16.2623   41.3621  102.7343 H   0  0  0  0  0  0  0  0  0  0  0  0
   18.1153   46.7480  103.5251 H   0  0  0  0  0  0  0  0  0  0  0  0
   19.2798   46.9895  102.1607 H   0  0  0  0  0  0  0  0  0  0  0  0
   17.0584   38.6585  102.9437 H   0  0  0  0  0  0  0  0  0  0  0  0
   17.6205   39.1249  101.3221 H   0  0  0  0  0  0  0  0  0  0  0  0
   16.7212   45.6506  102.0391 H   0  0  0  0  0  0  0  0  0  0  0  0
   18.0329   45.5980  100.7767 H   0  0  0  0  0  0  0  0  0  0  0  0
   14.9968   40.3275  101.4949 H   0  0  0  0  0  0  0  0  0  0  0  0
   15.5837   38.9925  100.4548 H   0  0  0  0  0  0  0  0  0  0  0  0
   14.8374   38.1964  103.2483 H   0  0  0  0  0  0  0  0  0  0  0  0
   14.0602   38.1494   99.7673 H   0  0  0  0  0  0  0  0  0  0  0  0
   12.3805   37.5665   99.9860 H   0  0  0  0  0  0  0  0  0  0  0  0
   12.3794   37.8160  103.5781 H   0  0  0  0  0  0  0  0  0  0  0  0
   11.5231   37.0517  102.2054 H   0  0  0  0  0  0  0  0  0  0  0  0
   20.1474   40.7917  102.1928 H   0  0  0  0  0  0  0  0  0  0  0  0
  2  1  1  0
  4  2  1  0
  5  4  2  0
  2  6  1  0
  3  7  1  0
  8  6  1  0
  9  7  1  0
 10  8  1  0
 10  1  1  0
 11  9  1  0
 12 11  1  0
 13 12  1  0
 14 13  2  0
 15 13  1  0
 16  3  1  0
 16  1  1  0
 17  4  1  0
 17  3  1  0
 18 16  2  0
  2 19  1  1
  3 20  1  6
  6 21  1  0
  6 22  1  0
  7 23  1  0
  7 24  1  0
  8 25  1  0
  8 26  1  0
  9 27  1  0
  9 28  1  0
 10 29  1  0
 10 30  1  0
 11 31  1  0
 11 32  1  0
 12 33  1  0
 14 34  1  0
 14 35  1  0
 15 36  1  0
 15 37  1  0
 17 38  1  0
M  CHG  1  14   1
M  END
