
     RDKit          3D

 32 33  0  0  0  0  0  0  0  0999 V2000
   17.4975   33.5550   -8.5297 O   0  0  0  0  0  0  0  0  0  0  0  0
   15.9030   32.6351  -10.3804 P   0  0  0  0  0  0  0  0  0  0  0  0
   15.0693   34.6680   -8.4265 P   0  0  0  0  0  0  0  0  0  0  0  0
   14.7747   30.3252   -9.3810 C   0  0  0  0  0  0  0  0  0  0  0  0
   14.7544   28.9740   -9.5080 N   0  0  0  0  0  0  0  0  0  0  0  0
   14.4600   32.2762  -10.6545 O   0  0  0  0  0  0  0  0  0  0  0  0
   15.5705   30.6767   -8.2984 C   0  0  0  0  0  0  0  0  0  0  0  0
   15.9993   29.5316   -7.7307 N   0  0  0  0  0  0  0  0  0  0  0  0
   16.3951   33.8601  -11.4171 O   0  0  0  0  0  0  0  0  0  0  0  0
   16.7538   29.3219   -6.6181 C   0  0  0  0  0  0  0  0  0  0  0  0
   16.8881   31.2998  -10.6097 O   0  0  0  0  0  0  0  0  0  0  0  0
   17.0670   28.0049   -6.2575 C   0  0  0  0  0  0  0  0  0  0  0  0
   15.3887   35.7413   -9.4447 O   0  0  0  0  0  0  0  0  0  0  0  0
   16.5815   26.9378   -7.0339 C   0  0  0  0  0  0  0  0  0  0  0  0
   15.3079   35.2705   -6.8815 O   0  0  0  0  0  0  0  0  0  0  0  0
   15.7911   27.1949   -8.1688 C   0  0  0  0  0  0  0  0  0  0  0  0
   13.4679   34.1915   -8.5992 O   0  0  0  0  0  0  0  0  0  0  0  0
   15.5143   28.5320   -8.4834 C   0  0  0  0  0  0  0  0  0  0  0  0
   15.8137   32.0507   -7.7132 C   0  0  0  0  0  0  0  0  0  0  0  0
   16.1461   33.2129   -8.6776 C   0  0  0  0  0  0  0  0  0  0  0  0
   17.6862   34.3360   -9.1124 H   0  0  0  0  0  0  0  0  0  0  0  0
   14.2402   30.9981  -10.0364 H   0  0  0  0  0  0  0  0  0  0  0  0
   16.1571   33.5361  -12.3222 H   0  0  0  0  0  0  0  0  0  0  0  0
   17.1158   30.1416   -6.0134 H   0  0  0  0  0  0  0  0  0  0  0  0
   16.3420   30.5223  -10.3296 H   0  0  0  0  0  0  0  0  0  0  0  0
   17.6713   27.8095   -5.3812 H   0  0  0  0  0  0  0  0  0  0  0  0
   16.8146   25.9178   -6.7575 H   0  0  0  0  0  0  0  0  0  0  0  0
   15.7774   34.5459   -6.3966 H   0  0  0  0  0  0  0  0  0  0  0  0
   15.4025   26.3854   -8.7729 H   0  0  0  0  0  0  0  0  0  0  0  0
   12.9694   34.7247   -7.9298 H   0  0  0  0  0  0  0  0  0  0  0  0
   16.6464   31.9807   -6.9842 H   0  0  0  0  0  0  0  0  0  0  0  0
   14.9026   32.3115   -7.1335 H   0  0  0  0  0  0  0  0  0  0  0  0
  5  4  1  0
  6  2  2  0
  7  4  2  0
  8  7  1  0
  9  2  1  0
 10  8  1  0
 11  2  1  0
 12 10  2  0
 13  3  2  0
 14 12  1  0
 15  3  1  0
 16 14  2  0
 17  3  1  0
 18 16  1  0
 18  8  1  0
 18  5  2  0
 19  7  1  0
 20 19  1  0
 20  3  1  0
 20  2  1  0
 20  1  1  0
  1 21  1  0
  4 22  1  0
  9 23  1  0
 10 24  1  0
 11 25  1  0
 12 26  1  0
 14 27  1  0
 15 28  1  0
 16 29  1  0
 17 30  1  0
 19 31  1  0
 19 32  1  0
M  END
