
     RDKit          3D

 27 27  0  0  0  0  0  0  0  0999 V2000
   -1.8297   30.9635   18.3893 P   0  0  0  0  0  0  0  0  0  0  0  0
    2.8545   30.6520   17.2754 C   0  0  0  0  0  0  0  0  0  0  0  0
   -0.2695   30.7554   17.7408 O   0  0  0  0  0  0  0  0  0  0  0  0
    1.9241   31.5413   17.6872 C   0  0  0  0  0  0  0  0  0  0  0  0
    0.1502   29.6259   20.3244 O   0  0  0  0  0  0  0  0  0  0  0  0
    0.7806   31.1779   18.5932 C   0  0  2  0  0  0  0  0  0  0  0  0
    2.0520   27.7280   19.4901 O   0  0  0  0  0  0  0  0  0  0  0  0
    1.2294   30.0332   19.5300 C   0  0  2  0  0  0  0  0  0  0  0  0
    4.3837   30.2141   15.5223 O   0  0  0  0  0  0  0  0  0  0  0  0
    1.7790   28.8536   18.6914 C   0  0  1  0  0  0  0  0  0  0  0  0
    4.1854   32.4012   16.1633 O   0  0  0  0  0  0  0  0  0  0  0  0
    3.0427   29.3053   17.9455 C   0  0  0  0  0  0  0  0  0  0  0  0
   -2.4681   32.2609   17.9433 O   0  0  0  0  0  0  0  0  0  0  0  0
    3.8340   31.0675   16.2676 C   0  0  0  0  0  0  0  0  0  0  0  0
   -1.7354   30.9064   20.0639 O   0  0  0  0  0  0  0  0  0  0  0  0
   -2.7252   29.6588   17.8129 O   0  0  0  0  0  0  0  0  0  0  0  0
    1.8822   32.5274   17.2389 H   0  0  0  0  0  0  0  0  0  0  0  0
    0.5299   29.1722   21.1216 H   0  0  0  0  0  0  0  0  0  0  0  0
    0.5183   32.0729   19.2031 H   0  0  0  0  0  0  0  0  0  0  0  0
    2.8027   27.9642   20.0959 H   0  0  0  0  0  0  0  0  0  0  0  0
    2.0405   30.4272   20.1901 H   0  0  0  0  0  0  0  0  0  0  0  0
    1.0148   28.5504   17.9423 H   0  0  0  0  0  0  0  0  0  0  0  0
    4.7025   32.7418   15.3615 H   0  0  0  0  0  0  0  0  0  0  0  0
    3.3036   28.5384   17.1840 H   0  0  0  0  0  0  0  0  0  0  0  0
    3.8922   29.3882   18.6581 H   0  0  0  0  0  0  0  0  0  0  0  0
   -2.0583   31.7931   20.3646 H   0  0  0  0  0  0  0  0  0  0  0  0
   -3.4658   29.5532   18.4622 H   0  0  0  0  0  0  0  0  0  0  0  0
  3  1  1  0
  4  2  2  0
  6  4  1  0
  6  3  1  0
  8  6  1  0
  8  5  1  0
 10  8  1  0
 10  7  1  0
 12 10  1  0
 12  2  1  0
 13  1  2  0
 14 11  1  0
 14  2  1  0
 14  9  2  0
 15  1  1  0
 16  1  1  0
  4 17  1  0
  5 18  1  0
  6 19  1  1
  7 20  1  0
  8 21  1  1
 10 22  1  6
 11 23  1  0
 12 24  1  0
 12 25  1  0
 15 26  1  0
 16 27  1  0
M  END
