
     RDKit          3D

 76 80  0  0  0  0  0  0  0  0999 V2000
   20.3880   27.3644   15.4530 C   0  0  0  0  0  0  0  0  0  0  0  0
   21.0659   26.3057   15.9664 C   0  0  0  0  0  0  0  0  0  0  0  0
   20.4425   25.1027   16.2502 C   0  0  0  0  0  0  0  0  0  0  0  0
   19.0616   25.0121   16.0057 C   0  0  0  0  0  0  0  0  0  0  0  0
   18.3640   26.0983   15.4311 C   0  0  0  0  0  0  0  0  0  0  0  0
   19.0342   27.2978   15.1504 C   0  0  0  0  0  0  0  0  0  0  0  0
   18.1973   23.5742   16.4874 S   0  0  0  0  0  0  0  0  0  0  0  0
   17.1045   23.3260   15.4915 O   0  0  0  0  0  0  0  0  0  0  0  0
   19.1396   22.4066   16.5011 O   0  0  0  0  0  0  0  0  0  0  0  0
   17.5123   23.7370   18.0767 N   0  0  0  0  0  0  0  0  0  0  0  0
   18.4843   24.1948   19.0861 C   0  0  0  0  0  0  0  0  0  0  0  0
   18.5068   23.3326   20.3592 C   0  0  0  0  0  0  0  0  0  0  0  0
   18.7640   23.9587   21.7222 C   0  0  0  0  0  0  0  0  0  0  0  0
   19.1626   21.9764   20.1488 C   0  0  0  0  0  0  0  0  0  0  0  0
   16.2604   24.5168   18.0641 C   0  0  0  0  0  0  0  0  0  0  0  0
   15.1129   23.5857   18.4446 C   0  0  1  0  0  0  0  0  0  0  0  0
   13.9520   24.3147   18.7404 O   0  0  0  0  0  0  0  0  0  0  0  0
   14.8155   22.5344   17.3606 C   0  0  1  0  0  0  0  0  0  0  0  0
   13.9300   21.5621   17.9565 N   0  0  0  0  0  0  0  0  0  0  0  0
   14.2767   20.2168   18.1799 C   0  0  0  0  0  0  0  0  0  0  0  0
   15.3986   19.7484   17.8458 O   0  0  0  0  0  0  0  0  0  0  0  0
   13.3201   19.4325   18.7708 O   0  0  0  0  0  0  0  0  0  0  0  0
   13.4344   18.0318   18.8815 C   0  0  1  0  0  0  0  0  0  0  0  0
   12.7897   17.6624   20.1860 C   0  0  0  0  0  0  0  0  0  0  0  0
   11.4007   17.6730   19.9665 O   0  0  0  0  0  0  0  0  0  0  0  0
   11.2033   17.2940   18.6180 C   0  0  1  0  0  0  0  0  0  0  0  0
   10.2884   18.1823   18.0066 O   0  0  0  0  0  0  0  0  0  0  0  0
   10.9678   18.8734   16.9828 C   0  0  0  0  0  0  0  0  0  0  0  0
   12.2091   18.0891   16.6103 C   0  0  0  0  0  0  0  0  0  0  0  0
   12.5270   17.3389   17.8830 C   0  0  1  0  0  0  0  0  0  0  0  0
   14.1180   23.0965   16.1052 C   0  0  0  0  0  0  0  0  0  0  0  0
   14.8792   21.3881   14.4022 C   0  0  0  0  0  0  0  0  0  0  0  0
   14.6214   20.3583   13.4946 C   0  0  0  0  0  0  0  0  0  0  0  0
   13.3150   19.9202   13.2787 C   0  0  0  0  0  0  0  0  0  0  0  0
   12.2630   20.5111   13.9776 C   0  0  0  0  0  0  0  0  0  0  0  0
   12.5174   21.5385   14.8936 C   0  0  0  0  0  0  0  0  0  0  0  0
   13.8292   21.9946   15.1079 C   0  0  0  0  0  0  0  0  0  0  0  0
   21.2472   28.4294   15.3014 O   0  0  0  0  0  0  0  0  0  0  0  0
   22.5488   28.0028   15.7210 C   0  0  0  0  0  0  0  0  0  0  0  0
   22.3893   26.6440   16.1424 O   0  0  0  0  0  0  0  0  0  0  0  0
   21.0038   24.2830   16.6796 H   0  0  0  0  0  0  0  0  0  0  0  0
   17.3022   26.0276   15.2344 H   0  0  0  0  0  0  0  0  0  0  0  0
   18.5116   28.1480   14.7322 H   0  0  0  0  0  0  0  0  0  0  0  0
   18.3110   25.2505   19.3860 H   0  0  0  0  0  0  0  0  0  0  0  0
   19.5138   24.2273   18.6753 H   0  0  0  0  0  0  0  0  0  0  0  0
   17.4309   23.0573   20.4684 H   0  0  0  0  0  0  0  0  0  0  0  0
   19.6695   24.6027   21.6852 H   0  0  0  0  0  0  0  0  0  0  0  0
   18.9289   23.1825   22.4987 H   0  0  0  0  0  0  0  0  0  0  0  0
   17.9123   24.6065   22.0098 H   0  0  0  0  0  0  0  0  0  0  0  0
   18.5353   21.3359   19.4915 H   0  0  0  0  0  0  0  0  0  0  0  0
   19.2977   21.4536   21.1202 H   0  0  0  0  0  0  0  0  0  0  0  0
   20.1586   22.1108   19.6762 H   0  0  0  0  0  0  0  0  0  0  0  0
   16.2703   25.3704   18.7748 H   0  0  0  0  0  0  0  0  0  0  0  0
   16.0576   24.9918   17.0833 H   0  0  0  0  0  0  0  0  0  0  0  0
   15.4138   23.0404   19.3634 H   0  0  0  0  0  0  0  0  0  0  0  0
   14.0881   24.7360   19.6295 H   0  0  0  0  0  0  0  0  0  0  0  0
   15.7679   22.0487   17.0582 H   0  0  0  0  0  0  0  0  0  0  0  0
   12.9755   21.8715   18.2532 H   0  0  0  0  0  0  0  0  0  0  0  0
   14.4869   17.6729   18.8372 H   0  0  0  0  0  0  0  0  0  0  0  0
   13.1085   16.6444   20.5049 H   0  0  0  0  0  0  0  0  0  0  0  0
   13.0543   18.3834   20.9897 H   0  0  0  0  0  0  0  0  0  0  0  0
   10.7812   16.2657   18.5844 H   0  0  0  0  0  0  0  0  0  0  0  0
   11.2359   19.8908   17.3397 H   0  0  0  0  0  0  0  0  0  0  0  0
   10.3022   18.9801   16.1001 H   0  0  0  0  0  0  0  0  0  0  0  0
   11.9593   17.3633   15.8052 H   0  0  0  0  0  0  0  0  0  0  0  0
   13.0386   18.7388   16.2618 H   0  0  0  0  0  0  0  0  0  0  0  0
   12.9041   16.3138   17.6654 H   0  0  0  0  0  0  0  0  0  0  0  0
   13.1722   23.6070   16.3908 H   0  0  0  0  0  0  0  0  0  0  0  0
   14.7495   23.8600   15.6102 H   0  0  0  0  0  0  0  0  0  0  0  0
   15.9007   21.6997   14.5554 H   0  0  0  0  0  0  0  0  0  0  0  0
   15.4396   19.8963   12.9573 H   0  0  0  0  0  0  0  0  0  0  0  0
   13.1189   19.1211   12.5756 H   0  0  0  0  0  0  0  0  0  0  0  0
   11.2490   20.1681   13.8185 H   0  0  0  0  0  0  0  0  0  0  0  0
   11.6898   21.9769   15.4371 H   0  0  0  0  0  0  0  0  0  0  0  0
   23.2611   28.0577   14.8711 H   0  0  0  0  0  0  0  0  0  0  0  0
   22.9007   28.6272   16.5689 H   0  0  0  0  0  0  0  0  0  0  0  0
  2  1  1  0
  3  2  2  0
  4  3  1  0
  5  4  2  0
  6  5  1  0
  6  1  2  0
  7  4  1  0
  8  7  2  0
  9  7  2  0
  7 10  1  0
 11 10  1  0
 12 11  1  0
 12 13  1  0
 14 12  1  0
 15 10  1  0
 16 15  1  0
 16 17  1  0
 18 16  1  0
 19 18  1  0
 20 19  1  0
 21 20  2  0
 22 20  1  0
 23 22  1  0
 24 23  1  0
 25 24  1  0
 26 25  1  0
 27 26  1  0
 28 27  1  0
 29 28  1  0
 30 29  1  0
 30 26  1  0
 30 23  1  0
 18 31  1  0
 33 32  2  0
 34 33  1  0
 35 34  2  0
 36 35  1  0
 37 36  2  0
 37 32  1  0
 37 31  1  0
 38  1  1  0
 39 38  1  0
 40  2  1  0
 40 39  1  0
  3 41  1  0
  5 42  1  0
  6 43  1  0
 11 44  1  0
 11 45  1  0
 12 46  1  0
 13 47  1  0
 13 48  1  0
 13 49  1  0
 14 50  1  0
 14 51  1  0
 14 52  1  0
 15 53  1  0
 15 54  1  0
 16 55  1  1
 17 56  1  0
 18 57  1  6
 19 58  1  0
 23 59  1  1
 24 60  1  0
 24 61  1  0
 26 62  1  1
 28 63  1  0
 28 64  1  0
 29 65  1  0
 29 66  1  0
 30 67  1  6
 31 68  1  0
 31 69  1  0
 32 70  1  0
 33 71  1  0
 34 72  1  0
 35 73  1  0
 36 74  1  0
 39 75  1  0
 39 76  1  0
M  END
