
     RDKit          3D

 44 47  0  0  0  0  0  0  0  0999 V2000
   20.4032   17.8713    2.0178 Cl  0  0  0  0  0  0  0  0  0  0  0  0
   21.5648   14.5557    6.2928 Cl  0  0  0  0  0  0  0  0  0  0  0  0
   18.5062   13.8220    3.1168 C   0  0  0  0  0  0  0  0  0  0  0  0
   18.4108   12.6577    2.3605 C   0  0  0  0  0  0  0  0  0  0  0  0
   17.2107   12.0647    2.2132 N   0  0  0  0  0  0  0  0  0  0  0  0
   16.0992   12.5899    2.7727 C   0  0  0  0  0  0  0  0  0  0  0  0
   16.1642   13.7230    3.5026 N   0  0  0  0  0  0  0  0  0  0  0  0
   17.3417   14.3519    3.6988 C   0  0  0  0  0  0  0  0  0  0  0  0
   14.8914   11.8900    2.6060 N   0  0  0  0  0  0  0  0  0  0  0  0
   19.7646   15.6322    4.0547 C   0  0  0  0  0  0  0  0  0  0  0  0
   19.7167   14.4695    3.2935 C   0  0  0  0  0  0  0  0  0  0  0  0
   17.3890   15.4808    4.4589 N   0  0  0  0  0  0  0  0  0  0  0  0
   18.5826   16.1215    4.6518 C   0  0  0  0  0  0  0  0  0  0  0  0
   16.1371   15.9871    5.0532 C   0  0  0  0  0  0  0  0  0  0  0  0
   18.6271   17.1611    5.3593 O   0  0  0  0  0  0  0  0  0  0  0  0
   23.1102   16.6591    5.4758 C   0  0  0  0  0  0  0  0  0  0  0  0
   23.4323   17.7462    4.6569 C   0  0  0  0  0  0  0  0  0  0  0  0
   22.5942   18.0980    3.5969 C   0  0  0  0  0  0  0  0  0  0  0  0
   21.4133   17.3855    3.3716 C   0  0  0  0  0  0  0  0  0  0  0  0
   21.0587   16.3180    4.2227 C   0  0  0  0  0  0  0  0  0  0  0  0
   21.9285   15.9395    5.2612 C   0  0  0  0  0  0  0  0  0  0  0  0
   13.3169   13.4907    3.7275 C   0  0  0  0  0  0  0  0  0  0  0  0
   13.5882   12.3235    2.9821 C   0  0  0  0  0  0  0  0  0  0  0  0
   12.5458   11.4534    2.6799 C   0  0  0  0  0  0  0  0  0  0  0  0
   11.2391   11.7440    3.0630 C   0  0  0  0  0  0  0  0  0  0  0  0
   10.9710   12.9002    3.8000 C   0  0  0  0  0  0  0  0  0  0  0  0
   12.0062   13.7753    4.1243 C   0  0  0  0  0  0  0  0  0  0  0  0
   10.1397   10.7785    2.7559 C   0  0  0  0  0  0  0  0  0  0  0  0
    9.7135   13.1597    4.2294 F   0  0  0  0  0  0  0  0  0  0  0  0
   19.2845   12.2178    1.8956 H   0  0  0  0  0  0  0  0  0  0  0  0
   14.9577   11.0188    2.0294 H   0  0  0  0  0  0  0  0  0  0  0  0
   20.6215   14.0789    2.8402 H   0  0  0  0  0  0  0  0  0  0  0  0
   15.7701   15.2797    5.8278 H   0  0  0  0  0  0  0  0  0  0  0  0
   16.3178   16.9795    5.5188 H   0  0  0  0  0  0  0  0  0  0  0  0
   15.3252   16.1050    4.3062 H   0  0  0  0  0  0  0  0  0  0  0  0
   23.7794   16.3781    6.2791 H   0  0  0  0  0  0  0  0  0  0  0  0
   24.3449   18.3014    4.8309 H   0  0  0  0  0  0  0  0  0  0  0  0
   22.8636   18.9269    2.9545 H   0  0  0  0  0  0  0  0  0  0  0  0
   14.0957   14.1515    4.0679 H   0  0  0  0  0  0  0  0  0  0  0  0
   12.7470   10.5373    2.1358 H   0  0  0  0  0  0  0  0  0  0  0  0
   11.8012   14.6612    4.7118 H   0  0  0  0  0  0  0  0  0  0  0  0
    9.1503   11.2707    2.8681 H   0  0  0  0  0  0  0  0  0  0  0  0
   10.2122   10.4011    1.7134 H   0  0  0  0  0  0  0  0  0  0  0  0
   10.1984    9.9171    3.4536 H   0  0  0  0  0  0  0  0  0  0  0  0
  4  3  2  0
  5  4  1  0
  6  5  2  0
  7  6  1  0
  8  7  2  0
  8  3  1  0
  9  6  1  0
 11 10  2  0
 11  3  1  0
 12  8  1  0
 13 12  1  0
 13 10  1  0
 14 12  1  0
 15 13  2  0
 17 16  2  0
 18 17  1  0
 19 18  2  0
 19  1  1  0
 20 10  1  0
 20 19  1  0
 21 20  2  0
 21  2  1  0
 21 16  1  0
 23 22  2  0
 23  9  1  0
 24 23  1  0
 25 24  2  0
 26 25  1  0
 27 26  2  0
 27 22  1  0
 28 25  1  0
 29 26  1  0
  4 30  1  0
  9 31  1  0
 11 32  1  0
 14 33  1  0
 14 34  1  0
 14 35  1  0
 16 36  1  0
 17 37  1  0
 18 38  1  0
 22 39  1  0
 24 40  1  0
 27 41  1  0
 28 42  1  0
 28 43  1  0
 28 44  1  0
M  END
