
     RDKit          3D

 44 47  0  0  0  0  0  0  0  0999 V2000
   24.3228   51.5978   11.4474 Cl  0  0  0  0  0  0  0  0  0  0  0  0
   20.3045   55.0222   13.0375 Cl  0  0  0  0  0  0  0  0  0  0  0  0
   21.3860   50.8299   14.8048 C   0  0  0  0  0  0  0  0  0  0  0  0
   20.6388   49.6672   14.9777 C   0  0  0  0  0  0  0  0  0  0  0  0
   20.6200   49.0660   16.1859 N   0  0  0  0  0  0  0  0  0  0  0  0
   21.3037   49.5781   17.2344 C   0  0  0  0  0  0  0  0  0  0  0  0
   22.0248   50.7090   17.0932 N   0  0  0  0  0  0  0  0  0  0  0  0
   22.0917   51.3472   15.9053 C   0  0  0  0  0  0  0  0  0  0  0  0
   21.2619   48.8817   18.4593 N   0  0  0  0  0  0  0  0  0  0  0  0
   22.2163   52.6323   13.4473 C   0  0  0  0  0  0  0  0  0  0  0  0
   21.4497   51.4768   13.5786 C   0  0  0  0  0  0  0  0  0  0  0  0
   22.8391   52.4788   15.7856 N   0  0  0  0  0  0  0  0  0  0  0  0
   22.9169   53.1202   14.5763 C   0  0  0  0  0  0  0  0  0  0  0  0
   23.5746   52.9696   16.9668 C   0  0  0  0  0  0  0  0  0  0  0  0
   23.6160   54.1596   14.4686 O   0  0  0  0  0  0  0  0  0  0  0  0
   21.4434   55.0080   10.5774 C   0  0  0  0  0  0  0  0  0  0  0  0
   22.3244   54.5565    9.5950 C   0  0  0  0  0  0  0  0  0  0  0  0
   23.1979   53.5065    9.8772 C   0  0  0  0  0  0  0  0  0  0  0  0
   23.1789   52.8906   11.1358 C   0  0  0  0  0  0  0  0  0  0  0  0
   22.2637   53.3086   12.1221 C   0  0  0  0  0  0  0  0  0  0  0  0
   21.4149   54.3954   11.8363 C   0  0  0  0  0  0  0  0  0  0  0  0
   23.5732   49.0439   19.4227 C   0  0  0  0  0  0  0  0  0  0  0  0
   22.1688   49.0073   19.5525 C   0  0  0  0  0  0  0  0  0  0  0  0
   21.6050   48.9884   20.8246 C   0  0  0  0  0  0  0  0  0  0  0  0
   22.4049   48.9993   21.9638 C   0  0  0  0  0  0  0  0  0  0  0  0
   23.7973   49.0548   21.8341 C   0  0  0  0  0  0  0  0  0  0  0  0
   24.3798   49.0796   20.5654 C   0  0  0  0  0  0  0  0  0  0  0  0
   21.7704   48.9722   23.3189 C   0  0  0  0  0  0  0  0  0  0  0  0
   24.5848   49.0587   22.9361 F   0  0  0  0  0  0  0  0  0  0  0  0
   20.0805   49.2337   14.1572 H   0  0  0  0  0  0  0  0  0  0  0  0
   20.3974   48.3138   18.6196 H   0  0  0  0  0  0  0  0  0  0  0  0
   20.9076   51.0865   12.7240 H   0  0  0  0  0  0  0  0  0  0  0  0
   23.5254   54.0789   17.0154 H   0  0  0  0  0  0  0  0  0  0  0  0
   23.1288   52.5414   17.8898 H   0  0  0  0  0  0  0  0  0  0  0  0
   24.6498   52.6960   16.9437 H   0  0  0  0  0  0  0  0  0  0  0  0
   20.7816   55.8368   10.3598 H   0  0  0  0  0  0  0  0  0  0  0  0
   22.3424   55.0311    8.6224 H   0  0  0  0  0  0  0  0  0  0  0  0
   23.8948   53.1736    9.1184 H   0  0  0  0  0  0  0  0  0  0  0  0
   24.0627   48.9792   18.4652 H   0  0  0  0  0  0  0  0  0  0  0  0
   20.5269   48.9516   20.9331 H   0  0  0  0  0  0  0  0  0  0  0  0
   25.4576   49.0972   20.4650 H   0  0  0  0  0  0  0  0  0  0  0  0
   22.4890   49.3597   24.0711 H   0  0  0  0  0  0  0  0  0  0  0  0
   20.8491   49.5923   23.3545 H   0  0  0  0  0  0  0  0  0  0  0  0
   21.4905   47.9315   23.5874 H   0  0  0  0  0  0  0  0  0  0  0  0
  4  3  2  0
  5  4  1  0
  6  5  2  0
  7  6  1  0
  8  7  2  0
  8  3  1  0
  9  6  1  0
 11 10  2  0
 11  3  1  0
 12  8  1  0
 13 12  1  0
 13 10  1  0
 14 12  1  0
 15 13  2  0
 17 16  2  0
 18 17  1  0
 19  1  1  0
 19 18  2  0
 20 19  1  0
 20 10  1  0
 21 16  1  0
 21  2  1  0
 21 20  2  0
 23  9  1  0
 23 22  2  0
 24 23  1  0
 25 24  2  0
 26 25  1  0
 27 26  2  0
 27 22  1  0
 28 25  1  0
 29 26  1  0
  4 30  1  0
  9 31  1  0
 11 32  1  0
 14 33  1  0
 14 34  1  0
 14 35  1  0
 16 36  1  0
 17 37  1  0
 18 38  1  0
 22 39  1  0
 24 40  1  0
 27 41  1  0
 28 42  1  0
 28 43  1  0
 28 44  1  0
M  END
