
     RDKit          3D

 41 43  0  0  0  0  0  0  0  0999 V2000
   39.7816   44.9691   15.0457 S   0  0  0  0  0  0  0  0  0  0  0  0
   39.1704   47.6938   14.6663 P   0  0  2  0  0  0  0  0  0  0  0  0
   38.8652   48.6943   17.0088 C   0  0  0  0  0  0  0  0  0  0  0  0
   38.1945   48.4462   15.8091 O   0  0  0  0  0  0  0  0  0  0  0  0
   37.8371   49.2763   18.0016 C   0  0  1  0  0  0  0  0  0  0  0  0
   37.3217   50.5004   17.5108 O   0  0  0  0  0  0  0  0  0  0  0  0
   36.6483   48.3487   18.2611 C   0  0  1  0  0  0  0  0  0  0  0  0
   36.1767   48.5482   19.5703 O   0  0  0  0  0  0  0  0  0  0  0  0
   35.6352   48.8561   17.2533 C   0  0  1  0  0  0  0  0  0  0  0  0
   34.3062   48.5436   17.5804 O   0  0  0  0  0  0  0  0  0  0  0  0
   35.9367   50.3451   17.2785 C   0  0  2  0  0  0  0  0  0  0  0  0
   32.7221   53.7204   15.2647 N   0  0  0  0  0  0  0  0  0  0  0  0
   40.6552   47.8268   14.9339 O   0  0  0  0  0  0  0  0  0  0  0  0
   41.1975   45.2440   14.6627 O   0  0  0  0  0  0  0  0  0  0  0  0
   32.5580   52.9276   16.3681 C   0  0  0  0  0  0  0  0  0  0  0  0
   38.7586   48.4119   13.2070 O   0  0  0  0  0  0  0  0  0  0  0  0
   39.3874   43.6526   14.4558 O   0  0  0  0  0  0  0  0  0  0  0  0
   33.4959   51.9931   16.6855 N   0  0  0  0  0  0  0  0  0  0  0  0
   38.7166   46.0909   14.4028 O   0  0  0  0  0  0  0  0  0  0  0  0
   39.6510   44.8859   16.6953 O   0  0  0  0  0  0  0  0  0  0  0  0
   34.5704   51.8692   15.8734 C   0  0  0  0  0  0  0  0  0  0  0  0
   34.7380   52.6036   14.7475 C   0  0  0  0  0  0  0  0  0  0  0  0
   33.7944   53.5829   14.4305 C   0  0  0  0  0  0  0  0  0  0  0  0
   33.9267   54.4431   13.3043 N   0  0  0  0  0  0  0  0  0  0  0  0
   35.8874   52.2517   14.1300 N   0  0  0  0  0  0  0  0  0  0  0  0
   36.3866   51.2795   14.9499 C   0  0  0  0  0  0  0  0  0  0  0  0
   35.5933   51.0299   16.0309 N   0  0  0  0  0  0  0  0  0  0  0  0
   39.2914   47.7602   17.4354 H   0  0  0  0  0  0  0  0  0  0  0  0
   39.6767   49.4393   16.8520 H   0  0  0  0  0  0  0  0  0  0  0  0
   38.3712   49.4738   18.9573 H   0  0  0  0  0  0  0  0  0  0  0  0
   36.9131   47.2905   18.1223 H   0  0  0  0  0  0  0  0  0  0  0  0
   36.2871   49.5139   19.7738 H   0  0  0  0  0  0  0  0  0  0  0  0
   35.8424   48.4305   16.2499 H   0  0  0  0  0  0  0  0  0  0  0  0
   34.0428   49.0538   18.3896 H   0  0  0  0  0  0  0  0  0  0  0  0
   35.4022   50.8218   18.1315 H   0  0  0  0  0  0  0  0  0  0  0  0
   31.6908   53.0572   17.0007 H   0  0  0  0  0  0  0  0  0  0  0  0
   37.9592   47.9157   12.8973 H   0  0  0  0  0  0  0  0  0  0  0  0
   39.6853   43.9183   16.9046 H   0  0  0  0  0  0  0  0  0  0  0  0
   34.7450   54.3592   12.6610 H   0  0  0  0  0  0  0  0  0  0  0  0
   33.2029   55.1697   13.1085 H   0  0  0  0  0  0  0  0  0  0  0  0
   37.3445   50.8134   14.7848 H   0  0  0  0  0  0  0  0  0  0  0  0
  2  4  1  1
  4  3  1  0
  5  3  1  0
  6  5  1  0
  7  5  1  0
  7  8  1  0
  9  7  1  0
  9 10  1  0
 11  9  1  0
 11  6  1  0
 13  2  2  0
 14  1  2  0
 15 12  2  0
 16  2  1  0
 17  1  2  0
 18 15  1  0
 19  2  1  0
 19  1  1  0
  1 20  1  0
 21 18  2  0
 22 21  1  0
 23 22  2  0
 23 12  1  0
 24 23  1  0
 25 22  1  0
 26 25  2  0
 27 26  1  0
 27 21  1  0
 11 27  1  0
  3 28  1  0
  3 29  1  0
  5 30  1  1
  7 31  1  6
  8 32  1  0
  9 33  1  6
 10 34  1  0
 11 35  1  1
 15 36  1  0
 16 37  1  0
 20 38  1  0
 24 39  1  0
 24 40  1  0
 26 41  1  0
M  END
