
     RDKit          3D

 41 43  0  0  0  0  0  0  0  0999 V2000
   15.7968   11.0473   20.8548 S   0  0  0  0  0  0  0  0  0  0  0  0
   13.1042   11.7745   21.0637 P   0  0  2  0  0  0  0  0  0  0  0  0
   12.0251   10.8066   23.1696 C   0  0  0  0  0  0  0  0  0  0  0  0
   12.6243   10.4305   21.9596 O   0  0  0  0  0  0  0  0  0  0  0  0
   13.0415   10.6321   24.3126 C   0  0  1  0  0  0  0  0  0  0  0  0
   13.5762    9.3273   24.2591 O   0  0  0  0  0  0  0  0  0  0  0  0
   14.2173   11.6293   24.2778 C   0  0  1  0  0  0  0  0  0  0  0  0
   14.7011   11.8073   25.5855 O   0  0  0  0  0  0  0  0  0  0  0  0
   15.2326   10.8540   23.4616 C   0  0  1  0  0  0  0  0  0  0  0  0
   16.5769   11.2359   23.6496 O   0  0  0  0  0  0  0  0  0  0  0  0
   14.9545    9.4466   23.9878 C   0  0  2  0  0  0  0  0  0  0  0  0
   17.5112    5.0338   23.5408 N   0  0  0  0  0  0  0  0  0  0  0  0
   12.1503   12.9153   21.2717 O   0  0  0  0  0  0  0  0  0  0  0  0
   15.4331    9.7707   21.5300 O   0  0  0  0  0  0  0  0  0  0  0  0
   17.6531    6.0036   24.5043 C   0  0  0  0  0  0  0  0  0  0  0  0
   13.0362   11.2907   19.4682 O   0  0  0  0  0  0  0  0  0  0  0  0
   17.1223   11.5263   21.3790 O   0  0  0  0  0  0  0  0  0  0  0  0
   16.9287    7.1615   24.4335 N   0  0  0  0  0  0  0  0  0  0  0  0
   14.7192   12.2644   21.1721 O   0  0  0  0  0  0  0  0  0  0  0  0
   15.7618   10.8470   19.2156 O   0  0  0  0  0  0  0  0  0  0  0  0
   16.1323    7.3409   23.3493 C   0  0  0  0  0  0  0  0  0  0  0  0
   16.0039    6.4140   22.3786 C   0  0  0  0  0  0  0  0  0  0  0  0
   16.6703    5.2089   22.4765 C   0  0  0  0  0  0  0  0  0  0  0  0
   16.3175    4.1156   21.6362 N   0  0  0  0  0  0  0  0  0  0  0  0
   15.1254    6.8221   21.4462 N   0  0  0  0  0  0  0  0  0  0  0  0
   14.7456    8.0451   21.8958 C   0  0  0  0  0  0  0  0  0  0  0  0
   15.3461    8.3896   23.0661 N   0  0  0  0  0  0  0  0  0  0  0  0
   11.1520   10.1472   23.3714 H   0  0  0  0  0  0  0  0  0  0  0  0
   11.6861   11.8587   23.1746 H   0  0  0  0  0  0  0  0  0  0  0  0
   12.4900   10.7531   25.2714 H   0  0  0  0  0  0  0  0  0  0  0  0
   13.9334   12.6024   23.8409 H   0  0  0  0  0  0  0  0  0  0  0  0
   15.3700   11.0909   25.7449 H   0  0  0  0  0  0  0  0  0  0  0  0
   14.9960   10.9297   22.3794 H   0  0  0  0  0  0  0  0  0  0  0  0
   16.6504   11.7724   24.4807 H   0  0  0  0  0  0  0  0  0  0  0  0
   15.4896    9.3020   24.9545 H   0  0  0  0  0  0  0  0  0  0  0  0
   18.3143    5.8344   25.3429 H   0  0  0  0  0  0  0  0  0  0  0  0
   13.2182   12.1103   18.9424 H   0  0  0  0  0  0  0  0  0  0  0  0
   16.2199    9.9836   19.0549 H   0  0  0  0  0  0  0  0  0  0  0  0
   16.7675    3.1837   21.7746 H   0  0  0  0  0  0  0  0  0  0  0  0
   15.6170    4.2250   20.8693 H   0  0  0  0  0  0  0  0  0  0  0  0
   14.0126    8.6394   21.3843 H   0  0  0  0  0  0  0  0  0  0  0  0
  2  4  1  1
  4  3  1  0
  5  3  1  0
  6  5  1  0
  7  5  1  0
  7  8  1  0
  9  7  1  0
  9 10  1  0
 11  6  1  0
 11  9  1  0
 13  2  2  0
 14  1  2  0
 15 12  2  0
 16  2  1  0
 17  1  2  0
 18 15  1  0
 19  2  1  0
 19  1  1  0
  1 20  1  0
 21 18  2  0
 22 21  1  0
 23 12  1  0
 23 22  2  0
 24 23  1  0
 25 22  1  0
 26 25  2  0
 27 26  1  0
 11 27  1  0
 27 21  1  0
  3 28  1  0
  3 29  1  0
  5 30  1  1
  7 31  1  6
  8 32  1  0
  9 33  1  6
 10 34  1  0
 11 35  1  1
 15 36  1  0
 16 37  1  0
 20 38  1  0
 24 39  1  0
 24 40  1  0
 26 41  1  0
M  END
