
     RDKit          3D

 18 18  0  0  0  0  0  0  0  0999 V2000
   12.7677    9.0724    4.5456 C   0  0  0  0  0  0  0  0  0  0  0  0
   13.7677   10.0649    4.6009 C   0  0  0  0  0  0  0  0  0  0  0  0
   13.4932   11.2746    5.2869 C   0  0  0  0  0  0  0  0  0  0  0  0
   12.2274   11.4737    5.8675 C   0  0  0  0  0  0  0  0  0  0  0  0
   11.2512   10.4740    5.8012 C   0  0  0  0  0  0  0  0  0  0  0  0
   11.5244    9.2748    5.1471 C   0  0  0  0  0  0  0  0  0  0  0  0
   15.0698    9.7971    3.9399 C   0  0  0  0  0  0  0  0  0  0  0  0
   15.1765    8.9591    3.0071 O   0  0  0  0  0  0  0  0  0  0  0  0
   16.2036   10.4761    4.3567 O   0  0  0  0  0  0  0  0  0  0  0  0
   14.4734   12.3076    5.4002 N   0  0  0  0  0  0  0  0  0  0  0  0
   11.9092   12.6768    6.4966 O   0  0  0  0  0  0  0  0  0  0  0  0
   12.9448    8.1320    4.0391 H   0  0  0  0  0  0  0  0  0  0  0  0
   10.2796   10.6316    6.2521 H   0  0  0  0  0  0  0  0  0  0  0  0
   10.7673    8.5028    5.0968 H   0  0  0  0  0  0  0  0  0  0  0  0
   16.1737   11.4691    4.5557 H   0  0  0  0  0  0  0  0  0  0  0  0
   15.4336   12.1778    5.0129 H   0  0  0  0  0  0  0  0  0  0  0  0
   14.2186   13.2513    5.7664 H   0  0  0  0  0  0  0  0  0  0  0  0
   11.5670   13.4934    6.0077 H   0  0  0  0  0  0  0  0  0  0  0  0
  2  1  2  0
  3  2  1  0
  4  3  2  0
  5  4  1  0
  6  5  2  0
  6  1  1  0
  7  2  1  0
  8  7  2  0
  9  7  1  0
 10  3  1  0
 11  4  1  0
  1 12  1  0
  5 13  1  0
  6 14  1  0
  9 15  1  0
 10 16  1  0
 10 17  1  0
 11 18  1  0
M  END
