
     RDKit          3D

 35 36  0  0  0  0  0  0  0  0999 V2000
   25.1575   -2.5393    8.0654 P   0  0  0  0  0  0  0  0  0  0  0  0
   23.0643   -1.1262    8.4666 C   0  0  0  0  0  0  0  0  0  0  0  0
   24.1687   -1.6735    9.1213 O   0  0  0  0  0  0  0  0  0  0  0  0
   22.3132   -0.3214    9.5363 C   0  0  1  0  0  0  0  0  0  0  0  0
   21.3825    0.5378    8.9232 O   0  0  0  0  0  0  0  0  0  0  0  0
   21.5674   -1.2307   10.5302 C   0  0  1  0  0  0  0  0  0  0  0  0
   21.5697   -0.6768   11.8315 O   0  0  0  0  0  0  0  0  0  0  0  0
   20.1740   -1.2639    9.9521 C   0  0  1  0  0  0  0  0  0  0  0  0
   19.2107   -1.4788   10.9519 O   0  0  0  0  0  0  0  0  0  0  0  0
   20.0959    0.1429    9.3385 C   0  0  2  0  0  0  0  0  0  0  0  0
   19.1613    0.2664    8.1994 N   0  0  0  0  0  0  0  0  0  0  0  0
   19.7351   -1.9603    7.4341 O   0  0  0  0  0  0  0  0  0  0  0  0
   18.3321    1.3595    8.0881 C   0  0  0  0  0  0  0  0  0  0  0  0
   18.4063    2.3136    8.9024 O   0  0  0  0  0  0  0  0  0  0  0  0
   17.3990    1.4221    7.1060 N   0  0  0  0  0  0  0  0  0  0  0  0
   17.2232    0.3979    6.2418 C   0  0  0  0  0  0  0  0  0  0  0  0
   16.3469    0.4806    5.3450 O   0  0  0  0  0  0  0  0  0  0  0  0
   18.0021   -0.7440    6.3543 C   0  0  0  0  0  0  0  0  0  0  0  0
   18.9759   -0.7959    7.3458 C   0  0  0  0  0  0  0  0  0  0  0  0
   24.3762   -3.3241    7.0353 O   0  0  0  0  0  0  0  0  0  0  0  0
   26.0070   -3.5843    9.0710 O   0  0  0  0  0  0  0  0  0  0  0  0
   26.2248   -1.4798    7.3088 O   0  0  0  0  0  0  0  0  0  0  0  0
   23.3895   -0.4416    7.6508 H   0  0  0  0  0  0  0  0  0  0  0  0
   22.4195   -1.9333    8.0629 H   0  0  0  0  0  0  0  0  0  0  0  0
   23.0556    0.3052   10.0806 H   0  0  0  0  0  0  0  0  0  0  0  0
   21.9963   -2.2558   10.5809 H   0  0  0  0  0  0  0  0  0  0  0  0
   21.3207   -1.3774   12.4884 H   0  0  0  0  0  0  0  0  0  0  0  0
   20.1152   -2.0839    9.2075 H   0  0  0  0  0  0  0  0  0  0  0  0
   18.3362   -1.5333   10.4856 H   0  0  0  0  0  0  0  0  0  0  0  0
   19.8351    0.8259   10.1629 H   0  0  0  0  0  0  0  0  0  0  0  0
   20.7282   -1.9731    7.6236 H   0  0  0  0  0  0  0  0  0  0  0  0
   16.7906    2.2695    7.0269 H   0  0  0  0  0  0  0  0  0  0  0  0
   17.8607   -1.5781    5.6773 H   0  0  0  0  0  0  0  0  0  0  0  0
   26.3783   -3.0042    9.7828 H   0  0  0  0  0  0  0  0  0  0  0  0
   26.3826   -0.7630    7.9737 H   0  0  0  0  0  0  0  0  0  0  0  0
  3  2  1  0
  3  1  1  0
  4  2  1  0
  5  4  1  0
  6  4  1  0
  6  7  1  0
  8  6  1  0
  8  9  1  0
 10  8  1  0
 10  5  1  0
 10 11  1  0
 13 11  1  0
 14 13  2  0
 15 13  1  0
 16 15  1  0
 17 16  2  0
 18 16  1  0
 19 18  2  0
 19 12  1  0
 19 11  1  0
 20  1  2  0
 21  1  1  0
 22  1  1  0
  2 23  1  0
  2 24  1  0
  4 25  1  1
  6 26  1  1
  7 27  1  0
  8 28  1  6
  9 29  1  0
 10 30  1  1
 12 31  1  0
 15 32  1  0
 18 33  1  0
 21 34  1  0
 22 35  1  0
M  END
