
     RDKit          3D

 35 36  0  0  0  0  0  0  0  0999 V2000
   25.4876   -2.0618    7.7030 P   0  0  0  0  0  0  0  0  0  0  0  0
   23.4790   -0.6050    8.3211 C   0  0  0  0  0  0  0  0  0  0  0  0
   24.6831   -1.0967    8.8271 O   0  0  0  0  0  0  0  0  0  0  0  0
   22.9115    0.2992    9.4241 C   0  0  1  0  0  0  0  0  0  0  0  0
   21.8827    1.1043    8.9010 O   0  0  0  0  0  0  0  0  0  0  0  0
   22.3527   -0.5105   10.6086 C   0  0  1  0  0  0  0  0  0  0  0  0
   22.5693    0.1605   11.8346 O   0  0  0  0  0  0  0  0  0  0  0  0
   20.8821   -0.5880   10.2795 C   0  0  1  0  0  0  0  0  0  0  0  0
   20.1034   -0.7043   11.4430 O   0  0  0  0  0  0  0  0  0  0  0  0
   20.6883    0.7570    9.5619 C   0  0  2  0  0  0  0  0  0  0  0  0
   19.5738    0.7813    8.5905 N   0  0  0  0  0  0  0  0  0  0  0  0
   20.0313   -1.5097    7.9462 O   0  0  0  0  0  0  0  0  0  0  0  0
   18.7275    1.8647    8.5213 C   0  0  0  0  0  0  0  0  0  0  0  0
   18.9290    2.8891    9.2207 O   0  0  0  0  0  0  0  0  0  0  0  0
   17.6415    1.8427    7.7093 N   0  0  0  0  0  0  0  0  0  0  0  0
   17.3321    0.7446    6.9845 C   0  0  0  0  0  0  0  0  0  0  0  0
   16.3164    0.7502    6.2449 O   0  0  0  0  0  0  0  0  0  0  0  0
   18.1296   -0.3868    7.0678 C   0  0  0  0  0  0  0  0  0  0  0  0
   19.2572   -0.3536    7.8813 C   0  0  0  0  0  0  0  0  0  0  0  0
   24.5512   -2.9329    6.8958 O   0  0  0  0  0  0  0  0  0  0  0  0
   26.5044   -3.0154    8.6421 O   0  0  0  0  0  0  0  0  0  0  0  0
   26.4020   -1.0828    6.6834 O   0  0  0  0  0  0  0  0  0  0  0  0
   23.6554   -0.0001    7.4028 H   0  0  0  0  0  0  0  0  0  0  0  0
   22.7829   -1.4417    8.1075 H   0  0  0  0  0  0  0  0  0  0  0  0
   23.7292    0.9685    9.7756 H   0  0  0  0  0  0  0  0  0  0  0  0
   22.7937   -1.5292   10.6796 H   0  0  0  0  0  0  0  0  0  0  0  0
   21.7232    0.1824   12.3523 H   0  0  0  0  0  0  0  0  0  0  0  0
   20.7063   -1.4724    9.6337 H   0  0  0  0  0  0  0  0  0  0  0  0
   19.1764   -0.4666   11.1798 H   0  0  0  0  0  0  0  0  0  0  0  0
   20.5639    1.5144   10.3525 H   0  0  0  0  0  0  0  0  0  0  0  0
   21.0267   -1.5126    8.1235 H   0  0  0  0  0  0  0  0  0  0  0  0
   17.0205    2.6831    7.6570 H   0  0  0  0  0  0  0  0  0  0  0  0
   17.8838   -1.2787    6.5036 H   0  0  0  0  0  0  0  0  0  0  0  0
   26.3860   -3.9337    8.2905 H   0  0  0  0  0  0  0  0  0  0  0  0
   25.8236   -0.9310    5.8939 H   0  0  0  0  0  0  0  0  0  0  0  0
  3  2  1  0
  3  1  1  0
  4  2  1  0
  5  4  1  0
  6  4  1  0
  6  7  1  0
  8  6  1  0
  8  9  1  0
 10  8  1  0
 10  5  1  0
 10 11  1  0
 13 11  1  0
 14 13  2  0
 15 13  1  0
 16 15  1  0
 17 16  2  0
 18 16  1  0
 19 18  2  0
 19 12  1  0
 19 11  1  0
 20  1  2  0
 21  1  1  0
 22  1  1  0
  2 23  1  0
  2 24  1  0
  4 25  1  1
  6 26  1  1
  7 27  1  0
  8 28  1  6
  9 29  1  0
 10 30  1  1
 12 31  1  0
 15 32  1  0
 18 33  1  0
 21 34  1  0
 22 35  1  0
M  END
