
     RDKit          3D

 35 36  0  0  0  0  0  0  0  0999 V2000
   -4.6381    1.5460   25.4444 P   0  0  0  0  0  0  0  0  0  0  0  0
   -3.1210    0.2974   23.8160 C   0  0  0  0  0  0  0  0  0  0  0  0
   -3.1648    0.7937   25.1199 O   0  0  0  0  0  0  0  0  0  0  0  0
   -1.7610   -0.4011   23.6841 C   0  0  1  0  0  0  0  0  0  0  0  0
   -1.7782   -1.2714   22.5773 O   0  0  0  0  0  0  0  0  0  0  0  0
   -0.5993    0.5980   23.5123 C   0  0  1  0  0  0  0  0  0  0  0  0
    0.5653    0.1414   24.1705 O   0  0  0  0  0  0  0  0  0  0  0  0
   -0.4127    0.6244   22.0142 C   0  0  1  0  0  0  0  0  0  0  0  0
    0.9146    0.9203   21.6610 O   0  0  0  0  0  0  0  0  0  0  0  0
   -0.8136   -0.8153   21.6560 C   0  0  2  0  0  0  0  0  0  0  0  0
   -1.3287   -0.9818   20.2775 N   0  0  0  0  0  0  0  0  0  0  0  0
   -2.1252    1.3096   20.2369 O   0  0  0  0  0  0  0  0  0  0  0  0
   -1.0896   -2.1419   19.5754 C   0  0  0  0  0  0  0  0  0  0  0  0
   -0.4862   -3.1063   20.1080 O   0  0  0  0  0  0  0  0  0  0  0  0
   -1.4843   -2.2645   18.2827 N   0  0  0  0  0  0  0  0  0  0  0  0
   -2.0781   -1.2392   17.6315 C   0  0  0  0  0  0  0  0  0  0  0  0
   -2.4275   -1.3776   16.4316 O   0  0  0  0  0  0  0  0  0  0  0  0
   -2.2896   -0.0356   18.2872 C   0  0  0  0  0  0  0  0  0  0  0  0
   -1.9066    0.0803   19.6200 C   0  0  0  0  0  0  0  0  0  0  0  0
   -5.2131    2.2520   24.2383 O   0  0  0  0  0  0  0  0  0  0  0  0
   -4.2841    2.6680   26.6442 O   0  0  0  0  0  0  0  0  0  0  0  0
   -5.7251    0.4018   26.0287 O   0  0  0  0  0  0  0  0  0  0  0  0
   -3.9337   -0.4448   23.6466 H   0  0  0  0  0  0  0  0  0  0  0  0
   -3.1990    1.1300   23.0891 H   0  0  0  0  0  0  0  0  0  0  0  0
   -1.6009   -1.0097   24.6026 H   0  0  0  0  0  0  0  0  0  0  0  0
   -0.8431    1.6144   23.8921 H   0  0  0  0  0  0  0  0  0  0  0  0
    1.2773   -0.0239   23.4994 H   0  0  0  0  0  0  0  0  0  0  0  0
   -1.0803    1.4011   21.5901 H   0  0  0  0  0  0  0  0  0  0  0  0
    1.4585    0.7695   22.4775 H   0  0  0  0  0  0  0  0  0  0  0  0
    0.0778   -1.4358   21.8394 H   0  0  0  0  0  0  0  0  0  0  0  0
   -2.4331    1.4189   21.1933 H   0  0  0  0  0  0  0  0  0  0  0  0
   -1.3087   -3.1614   17.7736 H   0  0  0  0  0  0  0  0  0  0  0  0
   -2.7504    0.7993   17.7726 H   0  0  0  0  0  0  0  0  0  0  0  0
   -5.1123    3.2022   26.7429 H   0  0  0  0  0  0  0  0  0  0  0  0
   -6.3234    0.2083   25.2635 H   0  0  0  0  0  0  0  0  0  0  0  0
  3  2  1  0
  3  1  1  0
  4  2  1  0
  5  4  1  0
  6  4  1  0
  6  7  1  0
  8  6  1  0
  8  9  1  0
 10  8  1  0
 10  5  1  0
 10 11  1  0
 13 11  1  0
 14 13  2  0
 15 13  1  0
 16 15  1  0
 17 16  2  0
 18 16  1  0
 19 18  2  0
 19 12  1  0
 19 11  1  0
 20  1  2  0
 21  1  1  0
 22  1  1  0
  2 23  1  0
  2 24  1  0
  4 25  1  1
  6 26  1  1
  7 27  1  0
  8 28  1  6
  9 29  1  0
 10 30  1  6
 12 31  1  0
 15 32  1  0
 18 33  1  0
 21 34  1  0
 22 35  1  0
M  END
