
     RDKit          3D

 60 62  0  0  0  0  0  0  0  0999 V2000
   69.6249   98.2997   26.6018 P   0  0  2  0  0  0  0  0  0  0  0  0
   69.2667   95.8157   27.8940 P   0  0  2  0  0  0  0  0  0  0  0  0
   68.5774   91.6349   25.6551 C   0  0  0  0  0  0  0  0  0  0  0  0
   69.6296   90.9889   26.3267 O   0  0  0  0  0  0  0  0  0  0  0  0
   67.8581   92.6090   26.6115 C   0  0  1  0  0  0  0  0  0  0  0  0
   67.6479   93.8739   25.9799 O   0  0  0  0  0  0  0  0  0  0  0  0
   66.5216   92.0078   27.0961 C   0  0  1  0  0  0  0  0  0  0  0  0
   66.7688   90.7966   27.7617 O   0  0  0  0  0  0  0  0  0  0  0  0
   65.8370   93.0034   28.0493 C   0  0  2  0  0  0  0  0  0  0  0  0
   64.5945   92.5263   28.4885 O   0  0  0  0  0  0  0  0  0  0  0  0
   65.6900   94.3661   27.3341 C   0  0  1  0  0  0  0  0  0  0  0  0
   65.1122   95.3347   28.1792 O   0  0  0  0  0  0  0  0  0  0  0  0
   67.0788   94.8247   26.8855 C   0  0  1  0  0  0  0  0  0  0  0  0
   72.3215  101.4010   24.2600 C   0  0  1  0  0  0  0  0  0  0  0  0
   72.0195  102.3529   25.3562 N   0  0  0  0  0  0  0  0  0  0  0  0
   70.1948   98.6439   27.9573 O   0  0  0  0  0  0  0  0  0  0  0  0
   69.4533   96.5924   29.1755 O   0  0  0  0  0  0  0  0  0  0  0  0
   71.3197  103.5188   25.1262 C   0  0  0  0  0  0  0  0  0  0  0  0
   73.1595  100.1937   24.6985 C   0  0  2  0  0  0  0  0  0  0  0  0
   70.9704  103.8524   23.9568 O   0  0  0  0  0  0  0  0  0  0  0  0
   68.2374   99.1907   26.2970 O   0  0  0  0  0  0  0  0  0  0  0  0
   70.5232   94.7247   27.6683 O   0  0  0  0  0  0  0  0  0  0  0  0
   74.5406  100.4591   24.7054 O   0  0  0  0  0  0  0  0  0  0  0  0
   72.7596   99.1811   23.6371 C   0  0  2  0  0  0  0  0  0  0  0  0
   70.9892  104.3319   26.1718 N   0  0  0  0  0  0  0  0  0  0  0  0
   69.0928   96.7211   26.4880 O   0  0  0  0  0  0  0  0  0  0  0  0
   67.8361   94.9537   28.0755 O   0  0  0  0  0  0  0  0  0  0  0  0
   73.5355   99.3618   22.4784 O   0  0  0  0  0  0  0  0  0  0  0  0
   71.3279  104.0202   27.4536 C   0  0  0  0  0  0  0  0  0  0  0  0
   71.2910   99.5569   23.3501 C   0  0  2  0  0  0  0  0  0  0  0  0
   71.0192  104.7963   28.3981 O   0  0  0  0  0  0  0  0  0  0  0  0
   71.1079  100.9140   23.7143 O   0  0  0  0  0  0  0  0  0  0  0  0
   72.0154  102.8391   27.7154 C   0  0  0  0  0  0  0  0  0  0  0  0
   70.2981   98.6889   24.1479 C   0  0  0  0  0  0  0  0  0  0  0  0
   70.8049   98.6102   25.4537 O   0  0  0  0  0  0  0  0  0  0  0  0
   72.3401  102.0116   26.6460 C   0  0  0  0  0  0  0  0  0  0  0  0
   67.8741   90.8842   25.2282 H   0  0  0  0  0  0  0  0  0  0  0  0
   69.0047   92.2120   24.8044 H   0  0  0  0  0  0  0  0  0  0  0  0
   69.4590   90.0155   26.2355 H   0  0  0  0  0  0  0  0  0  0  0  0
   68.5280   92.7403   27.4925 H   0  0  0  0  0  0  0  0  0  0  0  0
   65.8670   91.8319   26.2087 H   0  0  0  0  0  0  0  0  0  0  0  0
   66.8386   91.0090   28.7289 H   0  0  0  0  0  0  0  0  0  0  0  0
   66.4739   93.1141   28.9551 H   0  0  0  0  0  0  0  0  0  0  0  0
   64.1648   92.0602   27.7241 H   0  0  0  0  0  0  0  0  0  0  0  0
   65.0408   94.2525   26.4377 H   0  0  0  0  0  0  0  0  0  0  0  0
   64.5115   95.9111   27.6384 H   0  0  0  0  0  0  0  0  0  0  0  0
   66.9355   95.7965   26.3668 H   0  0  0  0  0  0  0  0  0  0  0  0
   72.8710  101.9103   23.4364 H   0  0  0  0  0  0  0  0  0  0  0  0
   72.8598   99.8394   25.7075 H   0  0  0  0  0  0  0  0  0  0  0  0
   67.5085   98.5211   26.2584 H   0  0  0  0  0  0  0  0  0  0  0  0
   71.3410   95.2819   27.6304 H   0  0  0  0  0  0  0  0  0  0  0  0
   74.9818   99.6430   25.0589 H   0  0  0  0  0  0  0  0  0  0  0  0
   72.8806   98.1399   24.0193 H   0  0  0  0  0  0  0  0  0  0  0  0
   70.4642  105.2170   25.9849 H   0  0  0  0  0  0  0  0  0  0  0  0
   73.0221   99.9733   21.8884 H   0  0  0  0  0  0  0  0  0  0  0  0
   71.0620   99.4420   22.2678 H   0  0  0  0  0  0  0  0  0  0  0  0
   72.2828  102.5605   28.7274 H   0  0  0  0  0  0  0  0  0  0  0  0
   69.2899   99.1582   24.0952 H   0  0  0  0  0  0  0  0  0  0  0  0
   70.2537   97.6691   23.7077 H   0  0  0  0  0  0  0  0  0  0  0  0
   72.8399  101.0831   26.8645 H   0  0  0  0  0  0  0  0  0  0  0  0
  4  3  1  0
  5  3  1  0
  6  5  1  0
  7  5  1  0
  7  8  1  0
  9  7  1  0
  9 10  1  0
 11  9  1  0
 11 12  1  0
 13  6  1  0
 13 11  1  0
 14 15  1  0
 16  1  2  0
 17  2  2  0
 18 15  1  0
 19 14  1  0
 20 18  2  0
  1 21  1  6
  2 22  1  6
 19 23  1  0
 24 19  1  0
 25 18  1  0
 26  1  1  0
 26  2  1  0
 13 27  1  0
 27  2  1  0
 24 28  1  0
 29 25  1  0
 30 24  1  0
 31 29  2  0
 32 30  1  0
 32 14  1  0
 33 29  1  0
 30 34  1  0
 35  1  1  0
 35 34  1  0
 36 33  2  0
 36 15  1  0
  3 37  1  0
  3 38  1  0
  4 39  1  0
  5 40  1  1
  7 41  1  6
  8 42  1  0
  9 43  1  1
 10 44  1  0
 11 45  1  6
 12 46  1  0
 13 47  1  6
 14 48  1  6
 19 49  1  1
 21 50  1  0
 22 51  1  0
 23 52  1  0
 24 53  1  1
 25 54  1  0
 28 55  1  0
 30 56  1  6
 33 57  1  0
 34 58  1  0
 34 59  1  0
 36 60  1  0
M  END
