
     RDKit          3D

 60 62  0  0  0  0  0  0  0  0999 V2000
   69.3656   98.3180   27.3439 P   0  0  2  0  0  0  0  0  0  0  0  0
   70.2116   95.6262   27.4250 P   0  0  2  0  0  0  0  0  0  0  0  0
   67.9021   91.8766   25.4936 C   0  0  0  0  0  0  0  0  0  0  0  0
   69.0221   91.2802   24.8890 O   0  0  0  0  0  0  0  0  0  0  0  0
   68.2912   92.4621   26.8672 C   0  0  1  0  0  0  0  0  0  0  0  0
   67.6786   93.7385   27.0639 O   0  0  0  0  0  0  0  0  0  0  0  0
   67.9086   91.4882   28.0018 C   0  0  1  0  0  0  0  0  0  0  0  0
   68.5713   90.2653   27.8104 O   0  0  0  0  0  0  0  0  0  0  0  0
   68.3155   92.1029   29.3527 C   0  0  2  0  0  0  0  0  0  0  0  0
   67.9522   91.2776   30.4257 O   0  0  0  0  0  0  0  0  0  0  0  0
   67.6727   93.5028   29.4834 C   0  0  1  0  0  0  0  0  0  0  0  0
   68.0518   94.1367   30.6837 O   0  0  0  0  0  0  0  0  0  0  0  0
   68.1120   94.3462   28.2850 C   0  0  1  0  0  0  0  0  0  0  0  0
   71.4448  101.7282   24.7800 C   0  0  1  0  0  0  0  0  0  0  0  0
   70.7413  102.6984   25.6534 N   0  0  0  0  0  0  0  0  0  0  0  0
   69.8427   98.5969   28.7493 O   0  0  0  0  0  0  0  0  0  0  0  0
   71.3831   96.1633   28.2119 O   0  0  0  0  0  0  0  0  0  0  0  0
   70.6994  104.0431   25.3499 C   0  0  0  0  0  0  0  0  0  0  0  0
   72.4985  100.8857   25.5095 C   0  0  2  0  0  0  0  0  0  0  0  0
   71.3204  104.5078   24.3504 O   0  0  0  0  0  0  0  0  0  0  0  0
   67.9210   99.1130   27.0383 O   0  0  0  0  0  0  0  0  0  0  0  0
   70.7261   94.9380   25.9822 O   0  0  0  0  0  0  0  0  0  0  0  0
   73.7425  101.5337   25.6123 O   0  0  0  0  0  0  0  0  0  0  0  0
   72.5445   99.6620   24.6084 C   0  0  2  0  0  0  0  0  0  0  0  0
   69.9747  104.8953   26.1324 N   0  0  0  0  0  0  0  0  0  0  0  0
   68.9776   96.7153   27.0815 O   0  0  0  0  0  0  0  0  0  0  0  0
   69.5234   94.4238   28.3755 O   0  0  0  0  0  0  0  0  0  0  0  0
   73.4079   99.8921   23.5226 O   0  0  0  0  0  0  0  0  0  0  0  0
   69.2767  104.4520   27.2146 C   0  0  0  0  0  0  0  0  0  0  0  0
   71.0885   99.5572   24.1090 C   0  0  2  0  0  0  0  0  0  0  0  0
   68.6255  105.2642   27.9258 O   0  0  0  0  0  0  0  0  0  0  0  0
   70.4993  100.8423   24.2065 O   0  0  0  0  0  0  0  0  0  0  0  0
   69.2849  103.0968   27.5302 C   0  0  0  0  0  0  0  0  0  0  0  0
   70.2546   98.5628   24.9406 C   0  0  0  0  0  0  0  0  0  0  0  0
   70.5640   98.8174   26.2851 O   0  0  0  0  0  0  0  0  0  0  0  0
   70.0178  102.2339   26.7228 C   0  0  0  0  0  0  0  0  0  0  0  0
   67.0729   91.1382   25.5820 H   0  0  0  0  0  0  0  0  0  0  0  0
   67.5448   92.7011   24.8364 H   0  0  0  0  0  0  0  0  0  0  0  0
   68.7070   90.9189   24.0200 H   0  0  0  0  0  0  0  0  0  0  0  0
   69.3995   92.5792   26.8590 H   0  0  0  0  0  0  0  0  0  0  0  0
   66.8029   91.3333   27.9812 H   0  0  0  0  0  0  0  0  0  0  0  0
   69.5372   90.4345   27.9649 H   0  0  0  0  0  0  0  0  0  0  0  0
   69.4248   92.1880   29.3778 H   0  0  0  0  0  0  0  0  0  0  0  0
   68.6212   91.4117   31.1473 H   0  0  0  0  0  0  0  0  0  0  0  0
   66.5640   93.4104   29.4722 H   0  0  0  0  0  0  0  0  0  0  0  0
   69.0373   94.0686   30.7820 H   0  0  0  0  0  0  0  0  0  0  0  0
   67.6244   95.3371   28.4036 H   0  0  0  0  0  0  0  0  0  0  0  0
   71.9554  102.2520   23.9407 H   0  0  0  0  0  0  0  0  0  0  0  0
   72.1571  100.6064   26.5288 H   0  0  0  0  0  0  0  0  0  0  0  0
   67.2956   98.7789   27.7299 H   0  0  0  0  0  0  0  0  0  0  0  0
   69.8958   94.7710   25.4690 H   0  0  0  0  0  0  0  0  0  0  0  0
   74.3269  100.9364   26.1483 H   0  0  0  0  0  0  0  0  0  0  0  0
   72.8794   98.7637   25.1791 H   0  0  0  0  0  0  0  0  0  0  0  0
   69.9555  105.9141   25.8967 H   0  0  0  0  0  0  0  0  0  0  0  0
   72.9259  100.5006   22.9037 H   0  0  0  0  0  0  0  0  0  0  0  0
   71.0619   99.2302   23.0462 H   0  0  0  0  0  0  0  0  0  0  0  0
   68.7256  102.7165   28.3763 H   0  0  0  0  0  0  0  0  0  0  0  0
   69.1774   98.7114   24.7016 H   0  0  0  0  0  0  0  0  0  0  0  0
   70.5487   97.5216   24.6855 H   0  0  0  0  0  0  0  0  0  0  0  0
   69.9872  101.1828   26.9552 H   0  0  0  0  0  0  0  0  0  0  0  0
  4  3  1  0
  5  3  1  0
  6  5  1  0
  7  5  1  0
  7  8  1  0
  9  7  1  0
  9 10  1  0
 11  9  1  0
 11 12  1  0
 13  6  1  0
 13 11  1  0
 14 15  1  0
 16  1  2  0
 17  2  2  0
 18 15  1  0
 19 14  1  0
 20 18  2  0
  1 21  1  6
  2 22  1  6
 19 23  1  0
 24 19  1  0
 25 18  1  0
 26  1  1  0
 26  2  1  0
 13 27  1  0
 27  2  1  0
 24 28  1  0
 29 25  1  0
 30 24  1  0
 31 29  2  0
 32 30  1  0
 32 14  1  0
 33 29  1  0
 30 34  1  0
 35  1  1  0
 35 34  1  0
 36 33  2  0
 36 15  1  0
  3 37  1  0
  3 38  1  0
  4 39  1  0
  5 40  1  6
  7 41  1  1
  8 42  1  0
  9 43  1  6
 10 44  1  0
 11 45  1  1
 12 46  1  0
 13 47  1  1
 14 48  1  6
 19 49  1  1
 21 50  1  0
 22 51  1  0
 23 52  1  0
 24 53  1  1
 25 54  1  0
 28 55  1  0
 30 56  1  6
 33 57  1  0
 34 58  1  0
 34 59  1  0
 36 60  1  0
M  END
