
     RDKit          3D

 37 39  0  0  0  0  0  0  0  0999 V2000
   76.1817   67.2781   64.7856 N   0  0  0  0  0  0  0  0  0  0  0  0
   78.1612   66.8139   63.4906 N   0  0  0  0  0  0  0  0  0  0  0  0
   77.6702   69.0262   64.0886 N   0  0  0  0  0  0  0  0  0  0  0  0
   79.9980   66.1898   62.1030 N   0  0  0  0  0  0  0  0  0  0  0  0
   73.8452   64.4927   65.4477 C   0  0  0  0  0  0  0  0  0  0  0  0
   74.0320   63.6447   64.3545 C   0  0  0  0  0  0  0  0  0  0  0  0
   74.9631   63.9908   63.3615 C   0  0  0  0  0  0  0  0  0  0  0  0
   75.6795   65.1885   63.4662 C   0  0  0  0  0  0  0  0  0  0  0  0
   75.5032   66.0256   64.5955 C   0  0  0  0  0  0  0  0  0  0  0  0
   74.5742   65.6613   65.5673 C   0  0  0  0  0  0  0  0  0  0  0  0
   73.2263   62.4189   64.2754 C   0  0  0  0  0  0  0  0  0  0  0  0
   77.3586   67.7062   64.1111 C   0  0  0  0  0  0  0  0  0  0  0  0
   79.2581   67.1966   62.8049 C   0  0  0  0  0  0  0  0  0  0  0  0
   79.5785   68.5626   62.7454 C   0  0  0  0  0  0  0  0  0  0  0  0
   78.7654   69.4690   63.4253 C   0  0  0  0  0  0  0  0  0  0  0  0
   81.1815   66.4361   61.3417 C   0  0  0  0  0  0  0  0  0  0  0  0
   81.3016   65.9687   60.0244 C   0  0  0  0  0  0  0  0  0  0  0  0
   82.4626   66.2240   59.2926 C   0  0  0  0  0  0  0  0  0  0  0  0
   83.4975   66.9682   59.8631 C   0  0  0  0  0  0  0  0  0  0  0  0
   83.3683   67.4605   61.1647 C   0  0  0  0  0  0  0  0  0  0  0  0
   82.2110   67.2010   61.9016 C   0  0  0  0  0  0  0  0  0  0  0  0
   72.8604   61.8348   65.3310 O   0  0  0  0  0  0  0  0  0  0  0  0
   72.8810   61.8852   63.0478 O   0  0  0  0  0  0  0  0  0  0  0  0
   75.7953   67.9402   65.4974 H   0  0  0  0  0  0  0  0  0  0  0  0
   79.5790   65.2332   62.0513 H   0  0  0  0  0  0  0  0  0  0  0  0
   73.1357   64.2479   66.2291 H   0  0  0  0  0  0  0  0  0  0  0  0
   75.1011   63.3610   62.4913 H   0  0  0  0  0  0  0  0  0  0  0  0
   76.2997   65.4590   62.6294 H   0  0  0  0  0  0  0  0  0  0  0  0
   74.4094   66.2920   66.4326 H   0  0  0  0  0  0  0  0  0  0  0  0
   80.4160   68.9309   62.1698 H   0  0  0  0  0  0  0  0  0  0  0  0
   78.9918   70.5267   63.4037 H   0  0  0  0  0  0  0  0  0  0  0  0
   80.4950   65.4135   59.5626 H   0  0  0  0  0  0  0  0  0  0  0  0
   82.5564   65.8543   58.2796 H   0  0  0  0  0  0  0  0  0  0  0  0
   84.3961   67.1702   59.2946 H   0  0  0  0  0  0  0  0  0  0  0  0
   84.1678   68.0439   61.6029 H   0  0  0  0  0  0  0  0  0  0  0  0
   82.1211   67.5847   62.9102 H   0  0  0  0  0  0  0  0  0  0  0  0
   73.2585   62.2674   62.1889 H   0  0  0  0  0  0  0  0  0  0  0  0
  6  5  2  0
  7  6  1  0
  8  7  2  0
  9  8  1  0
  9  1  1  0
 10  5  1  0
 10  9  2  0
 11  6  1  0
 12  3  1  0
 12  2  2  0
 12  1  1  0
 13  4  1  0
 13  2  1  0
 14 13  2  0
 15 14  1  0
 15  3  2  0
 16  4  1  0
 17 16  2  0
 18 17  1  0
 19 18  2  0
 20 19  1  0
 21 16  1  0
 21 20  2  0
 22 11  2  0
 23 11  1  0
  1 24  1  0
  4 25  1  0
  5 26  1  0
  7 27  1  0
  8 28  1  0
 10 29  1  0
 14 30  1  0
 15 31  1  0
 17 32  1  0
 18 33  1  0
 19 34  1  0
 20 35  1  0
 21 36  1  0
 23 37  1  0
M  END
