
     RDKit          3D

 78 82  0  0  0  0  0  0  0  0999 V2000
   30.8683    1.1999   34.6360 C   0  0  0  0  0  0  0  0  0  0  0  0
   31.1021   -3.7002   35.4266 N   0  0  0  0  0  0  0  0  0  0  0  0
   30.8764    8.7048   36.4179 O   0  0  0  0  0  0  0  0  0  0  0  0
   33.2958    0.4233   39.1639 C   0  0  0  0  0  0  0  0  0  0  0  0
   29.5720    1.3213   34.0750 N   0  0  0  0  0  0  0  0  0  0  0  0
   27.2868    2.8944   34.2077 O   0  0  0  0  0  0  0  0  0  0  0  0
   29.2691    2.2305   32.9799 C   0  0  2  0  0  0  0  0  0  0  0  0
   28.4085    3.4096   33.5154 C   0  0  0  0  0  0  0  0  0  0  0  0
   28.5699    1.4328   31.8511 C   0  0  0  0  0  0  0  0  0  0  0  0
   29.2650    4.3240   34.4501 C   0  0  0  0  0  0  0  0  0  0  0  0
   31.8528   -3.5376   37.5611 C   0  0  0  0  0  0  0  0  0  0  0  0
   31.7342    2.1034   34.4683 O   0  0  0  0  0  0  0  0  0  0  0  0
   31.1597    0.0165   35.4400 C   0  0  0  0  0  0  0  0  0  0  0  0
   31.6022    0.1858   36.7515 C   0  0  0  0  0  0  0  0  0  0  0  0
   31.8741   -0.9190   37.5735 C   0  0  0  0  0  0  0  0  0  0  0  0
   31.6694   -2.2278   37.0500 C   0  0  0  0  0  0  0  0  0  0  0  0
   31.2167   -2.3866   35.7448 C   0  0  0  0  0  0  0  0  0  0  0  0
   30.9483   -1.2806   34.9227 C   0  0  0  0  0  0  0  0  0  0  0  0
   29.2891    0.1368   31.5000 C   0  0  0  0  0  0  0  0  0  0  0  0
   29.9879   -0.5770   32.4938 C   0  0  0  0  0  0  0  0  0  0  0  0
   30.6336   -1.7819   32.1845 C   0  0  0  0  0  0  0  0  0  0  0  0
   30.5927   -2.2871   30.8813 C   0  0  0  0  0  0  0  0  0  0  0  0
   29.9010   -1.5906   29.8855 C   0  0  0  0  0  0  0  0  0  0  0  0
   29.2446   -0.3903   30.1922 C   0  0  0  0  0  0  0  0  0  0  0  0
   32.2085   -4.0936   38.9358 C   0  0  0  0  0  0  0  0  0  0  0  0
   29.5975    5.6159   33.8212 N   0  0  0  0  0  0  0  0  0  0  0  0
   27.9682    4.1684   32.4152 O   0  0  0  0  0  0  0  0  0  0  0  0
   29.8517    6.7705   34.7132 C   0  0  0  0  0  0  0  0  0  0  0  0
   29.5972    6.5971   36.2181 C   0  0  0  0  0  0  0  0  0  0  0  0
   30.3580    7.5914   37.1191 C   0  0  0  0  0  0  0  0  0  0  0  0
   31.8071    8.2786   35.4458 C   0  0  0  0  0  0  0  0  0  0  0  0
   31.1262    7.5205   34.3006 C   0  0  0  0  0  0  0  0  0  0  0  0
   31.4771   -4.3931   36.5249 C   0  0  0  0  0  0  0  0  0  0  0  0
   32.3600   -0.6674   38.8880 N   0  0  0  0  0  0  0  0  0  0  0  0
   31.8374   -1.6743   40.1566 S   0  0  0  0  0  0  0  0  0  0  0  0
   32.7910   -3.1499   39.9878 C   0  0  0  0  0  0  0  0  0  0  0  0
   30.6930   -4.3005   34.1472 C   0  0  0  0  0  0  0  0  0  0  0  0
   29.3733   -3.7172   33.6446 C   0  0  0  0  0  0  0  0  0  0  0  0
   30.3671   -1.9367   40.0087 O   0  0  0  0  0  0  0  0  0  0  0  0
   32.1209   -0.9993   41.4629 O   0  0  0  0  0  0  0  0  0  0  0  0
   33.8823    0.2189   40.0838 H   0  0  0  0  0  0  0  0  0  0  0  0
   34.0176    0.5291   38.3260 H   0  0  0  0  0  0  0  0  0  0  0  0
   32.7381    1.3735   39.2977 H   0  0  0  0  0  0  0  0  0  0  0  0
   28.8145    0.6887   34.4227 H   0  0  0  0  0  0  0  0  0  0  0  0
   27.5699    2.5978   35.1112 H   0  0  0  0  0  0  0  0  0  0  0  0
   30.2074    2.6487   32.5524 H   0  0  0  0  0  0  0  0  0  0  0  0
   28.5176    2.0594   30.9349 H   0  0  0  0  0  0  0  0  0  0  0  0
   27.5235    1.2127   32.1566 H   0  0  0  0  0  0  0  0  0  0  0  0
   28.7054    4.4797   35.3967 H   0  0  0  0  0  0  0  0  0  0  0  0
   30.2175    3.8084   34.6985 H   0  0  0  0  0  0  0  0  0  0  0  0
   31.7234    1.1907   37.1372 H   0  0  0  0  0  0  0  0  0  0  0  0
   30.5985   -1.4209   33.9084 H   0  0  0  0  0  0  0  0  0  0  0  0
   30.0351   -0.2020   33.5084 H   0  0  0  0  0  0  0  0  0  0  0  0
   31.1715   -2.3193   32.9547 H   0  0  0  0  0  0  0  0  0  0  0  0
   31.0974   -3.2144   30.6436 H   0  0  0  0  0  0  0  0  0  0  0  0
   29.8661   -1.9829   28.8774 H   0  0  0  0  0  0  0  0  0  0  0  0
   28.6996    0.1229   29.4111 H   0  0  0  0  0  0  0  0  0  0  0  0
   31.2837   -4.5423   39.3589 H   0  0  0  0  0  0  0  0  0  0  0  0
   32.9281   -4.9292   38.7967 H   0  0  0  0  0  0  0  0  0  0  0  0
   28.8335    5.8968   33.1618 H   0  0  0  0  0  0  0  0  0  0  0  0
   26.9763    4.1443   32.3920 H   0  0  0  0  0  0  0  0  0  0  0  0
   29.0546    7.5126   34.4611 H   0  0  0  0  0  0  0  0  0  0  0  0
   29.9104    5.5747   36.5200 H   0  0  0  0  0  0  0  0  0  0  0  0
   28.5075    6.6776   36.4332 H   0  0  0  0  0  0  0  0  0  0  0  0
   29.6653    7.9680   37.9016 H   0  0  0  0  0  0  0  0  0  0  0  0
   31.1765    7.0678   37.6646 H   0  0  0  0  0  0  0  0  0  0  0  0
   32.6019    7.6476   35.9071 H   0  0  0  0  0  0  0  0  0  0  0  0
   32.3203    9.1726   35.0321 H   0  0  0  0  0  0  0  0  0  0  0  0
   31.8609    6.7947   33.8878 H   0  0  0  0  0  0  0  0  0  0  0  0
   30.8899    8.2329   33.4779 H   0  0  0  0  0  0  0  0  0  0  0  0
   31.4741   -5.4747   36.5831 H   0  0  0  0  0  0  0  0  0  0  0  0
   32.8287   -3.6712   40.9680 H   0  0  0  0  0  0  0  0  0  0  0  0
   33.8284   -2.8737   39.7025 H   0  0  0  0  0  0  0  0  0  0  0  0
   30.5785   -5.4001   34.2660 H   0  0  0  0  0  0  0  0  0  0  0  0
   31.4849   -4.1345   33.3867 H   0  0  0  0  0  0  0  0  0  0  0  0
   29.5434   -2.7105   33.2077 H   0  0  0  0  0  0  0  0  0  0  0  0
   28.9450   -4.3792   32.8629 H   0  0  0  0  0  0  0  0  0  0  0  0
   28.6515   -3.6339   34.4843 H   0  0  0  0  0  0  0  0  0  0  0  0
  5  1  1  0
  7  5  1  0
  8  6  1  0
  8  7  1  0
  7  9  1  0
 10  8  1  0
 12  1  2  0
 13  1  1  0
 14 13  1  0
 15 14  2  0
 16 15  1  0
 16 11  1  0
 17 16  2  0
 17  2  1  0
 18 17  1  0
 18 13  2  0
 19  9  1  0
 20 19  2  0
 21 20  1  0
 22 21  2  0
 23 22  1  0
 24 23  2  0
 24 19  1  0
 25 11  1  0
 26 10  1  0
 27  8  1  0
 28 26  1  0
 29 28  1  0
 30 29  1  0
 30  3  1  0
 31  3  1  0
 32 31  1  0
 32 28  1  0
 33 11  2  0
 33  2  1  0
 34 15  1  0
 34  4  1  0
 35 34  1  0
 35 36  1  0
 36 25  1  0
 37  2  1  0
 38 37  1  0
 39 35  2  0
 40 35  2  0
  4 41  1  0
  4 42  1  0
  4 43  1  0
  5 44  1  0
  6 45  1  0
  7 46  1  6
  9 47  1  0
  9 48  1  0
 10 49  1  0
 10 50  1  0
 14 51  1  0
 18 52  1  0
 20 53  1  0
 21 54  1  0
 22 55  1  0
 23 56  1  0
 24 57  1  0
 25 58  1  0
 25 59  1  0
 26 60  1  0
 27 61  1  0
 28 62  1  0
 29 63  1  0
 29 64  1  0
 30 65  1  0
 30 66  1  0
 31 67  1  0
 31 68  1  0
 32 69  1  0
 32 70  1  0
 33 71  1  0
 36 72  1  0
 36 73  1  0
 37 74  1  0
 37 75  1  0
 38 76  1  0
 38 77  1  0
 38 78  1  0
M  END
