
     RDKit          3D

 78 82  0  0  0  0  0  0  0  0999 V2000
   31.1459    0.3825   34.3985 C   0  0  0  0  0  0  0  0  0  0  0  0
   31.4260   -4.3557   35.8687 N   0  0  0  0  0  0  0  0  0  0  0  0
   29.2832    8.3199   35.2433 O   0  0  0  0  0  0  0  0  0  0  0  0
   33.5532    0.2748   39.0019 C   0  0  0  0  0  0  0  0  0  0  0  0
   29.8855    0.3554   33.7501 N   0  0  0  0  0  0  0  0  0  0  0  0
   27.7365    2.0369   33.7572 O   0  0  0  0  0  0  0  0  0  0  0  0
   29.6091    1.1033   32.5327 C   0  0  2  0  0  0  0  0  0  0  0  0
   28.7995    2.3820   32.8890 C   0  0  0  0  0  0  0  0  0  0  0  0
   28.8701    0.1751   31.5368 C   0  0  0  0  0  0  0  0  0  0  0  0
   29.7330    3.4467   33.5512 C   0  0  0  0  0  0  0  0  0  0  0  0
   32.1616   -3.8875   37.9628 C   0  0  0  0  0  0  0  0  0  0  0  0
   31.9724    1.3093   34.1700 O   0  0  0  0  0  0  0  0  0  0  0  0
   31.4447   -0.6733   35.3617 C   0  0  0  0  0  0  0  0  0  0  0  0
   31.8772   -0.3171   36.6386 C   0  0  0  0  0  0  0  0  0  0  0  0
   32.1555   -1.2929   37.6085 C   0  0  0  0  0  0  0  0  0  0  0  0
   31.9677   -2.6642   37.2725 C   0  0  0  0  0  0  0  0  0  0  0  0
   31.5249   -3.0093   36.0003 C   0  0  0  0  0  0  0  0  0  0  0  0
   31.2500   -2.0324   35.0302 C   0  0  0  0  0  0  0  0  0  0  0  0
   29.5349   -1.1864   31.3813 C   0  0  0  0  0  0  0  0  0  0  0  0
   28.7813   -2.3656   31.5459 C   0  0  0  0  0  0  0  0  0  0  0  0
   29.3798   -3.6223   31.3826 C   0  0  0  0  0  0  0  0  0  0  0  0
   30.7361   -3.7181   31.0566 C   0  0  0  0  0  0  0  0  0  0  0  0
   31.4958   -2.5563   30.8878 C   0  0  0  0  0  0  0  0  0  0  0  0
   30.8993   -1.2967   31.0398 C   0  0  0  0  0  0  0  0  0  0  0  0
   32.5146   -4.2415   39.4036 C   0  0  0  0  0  0  0  0  0  0  0  0
   29.5854    4.7810   32.9403 N   0  0  0  0  0  0  0  0  0  0  0  0
   28.2732    2.9158   31.6981 O   0  0  0  0  0  0  0  0  0  0  0  0
   29.3213    5.9256   33.8423 C   0  0  0  0  0  0  0  0  0  0  0  0
   30.0462    5.9674   35.1959 C   0  0  0  0  0  0  0  0  0  0  0  0
   30.1568    7.3717   35.8245 C   0  0  0  0  0  0  0  0  0  0  0  0
   29.5862    8.4875   33.8748 C   0  0  0  0  0  0  0  0  0  0  0  0
   29.2289    7.2413   33.0566 C   0  0  0  0  0  0  0  0  0  0  0  0
   31.8014   -4.8838   37.0549 C   0  0  0  0  0  0  0  0  0  0  0  0
   32.6306   -0.8543   38.8770 N   0  0  0  0  0  0  0  0  0  0  0  0
   32.1106   -1.6794   40.2717 S   0  0  0  0  0  0  0  0  0  0  0  0
   33.0807   -3.1534   40.3157 C   0  0  0  0  0  0  0  0  0  0  0  0
   31.0311   -5.1338   34.6841 C   0  0  0  0  0  0  0  0  0  0  0  0
   29.5277   -5.0478   34.4257 C   0  0  0  0  0  0  0  0  0  0  0  0
   30.6441   -1.9764   40.1551 O   0  0  0  0  0  0  0  0  0  0  0  0
   32.3790   -0.8250   41.4719 O   0  0  0  0  0  0  0  0  0  0  0  0
   34.1361    0.2077   39.9440 H   0  0  0  0  0  0  0  0  0  0  0  0
   34.2791    0.2702   38.1608 H   0  0  0  0  0  0  0  0  0  0  0  0
   32.9848    1.2280   38.9986 H   0  0  0  0  0  0  0  0  0  0  0  0
   29.1407   -0.2743   34.1292 H   0  0  0  0  0  0  0  0  0  0  0  0
   28.1072    1.7920   34.6443 H   0  0  0  0  0  0  0  0  0  0  0  0
   30.5594    1.4157   32.0455 H   0  0  0  0  0  0  0  0  0  0  0  0
   28.8352    0.6600   30.5376 H   0  0  0  0  0  0  0  0  0  0  0  0
   27.8183    0.0451   31.8738 H   0  0  0  0  0  0  0  0  0  0  0  0
   29.5063    3.4842   34.6377 H   0  0  0  0  0  0  0  0  0  0  0  0
   30.7922    3.1317   33.4349 H   0  0  0  0  0  0  0  0  0  0  0  0
   31.9855    0.7332   36.8803 H   0  0  0  0  0  0  0  0  0  0  0  0
   30.9081   -2.3172   34.0439 H   0  0  0  0  0  0  0  0  0  0  0  0
   27.7305   -2.3143   31.8018 H   0  0  0  0  0  0  0  0  0  0  0  0
   28.7923   -4.5215   31.5162 H   0  0  0  0  0  0  0  0  0  0  0  0
   31.1974   -4.6898   30.9372 H   0  0  0  0  0  0  0  0  0  0  0  0
   32.5449   -2.6298   30.6320 H   0  0  0  0  0  0  0  0  0  0  0  0
   31.5007   -0.4105   30.8864 H   0  0  0  0  0  0  0  0  0  0  0  0
   31.5919   -4.6368   39.8810 H   0  0  0  0  0  0  0  0  0  0  0  0
   33.2438   -5.0802   39.3863 H   0  0  0  0  0  0  0  0  0  0  0  0
   28.8157    4.7630   32.2299 H   0  0  0  0  0  0  0  0  0  0  0  0
   29.0181    3.0504   31.0563 H   0  0  0  0  0  0  0  0  0  0  0  0
   28.2667    5.7866   34.1858 H   0  0  0  0  0  0  0  0  0  0  0  0
   31.0810    5.5857   35.0614 H   0  0  0  0  0  0  0  0  0  0  0  0
   29.5429    5.2875   35.9201 H   0  0  0  0  0  0  0  0  0  0  0  0
   29.9174    7.2994   36.9069 H   0  0  0  0  0  0  0  0  0  0  0  0
   31.2084    7.7361   35.7698 H   0  0  0  0  0  0  0  0  0  0  0  0
   30.6618    8.7451   33.7351 H   0  0  0  0  0  0  0  0  0  0  0  0
   29.0061    9.3520   33.4878 H   0  0  0  0  0  0  0  0  0  0  0  0
   29.9181    7.1967   32.1849 H   0  0  0  0  0  0  0  0  0  0  0  0
   28.2020    7.3565   32.6416 H   0  0  0  0  0  0  0  0  0  0  0  0
   31.8093   -5.9466   37.2641 H   0  0  0  0  0  0  0  0  0  0  0  0
   33.1177   -3.5318   41.3594 H   0  0  0  0  0  0  0  0  0  0  0  0
   34.1169   -2.9082   39.9994 H   0  0  0  0  0  0  0  0  0  0  0  0
   31.3121   -6.2006   34.8226 H   0  0  0  0  0  0  0  0  0  0  0  0
   31.5818   -4.7636   33.7936 H   0  0  0  0  0  0  0  0  0  0  0  0
   29.1932   -5.9214   33.8274 H   0  0  0  0  0  0  0  0  0  0  0  0
   28.9813   -5.0453   35.3923 H   0  0  0  0  0  0  0  0  0  0  0  0
   29.2908   -4.1141   33.8732 H   0  0  0  0  0  0  0  0  0  0  0  0
  5  1  1  0
  7  5  1  0
  8  6  1  0
  8  7  1  0
  7  9  1  0
 10  8  1  0
 12  1  2  0
 13  1  1  0
 14 13  1  0
 15 14  2  0
 16 15  1  0
 16 11  1  0
 17 16  2  0
 17  2  1  0
 18 17  1  0
 18 13  2  0
 19  9  1  0
 20 19  2  0
 21 20  1  0
 22 21  2  0
 23 22  1  0
 24 23  2  0
 24 19  1  0
 25 11  1  0
 26 10  1  0
 27  8  1  0
 28 26  1  0
 29 28  1  0
 30 29  1  0
 30  3  1  0
 31  3  1  0
 32 31  1  0
 32 28  1  0
 33 11  2  0
 33  2  1  0
 34 15  1  0
 34  4  1  0
 35 34  1  0
 35 36  1  0
 36 25  1  0
 37  2  1  0
 38 37  1  0
 39 35  2  0
 40 35  2  0
  4 41  1  0
  4 42  1  0
  4 43  1  0
  5 44  1  0
  6 45  1  0
  7 46  1  6
  9 47  1  0
  9 48  1  0
 10 49  1  0
 10 50  1  0
 14 51  1  0
 18 52  1  0
 20 53  1  0
 21 54  1  0
 22 55  1  0
 23 56  1  0
 24 57  1  0
 25 58  1  0
 25 59  1  0
 26 60  1  0
 27 61  1  0
 28 62  1  0
 29 63  1  0
 29 64  1  0
 30 65  1  0
 30 66  1  0
 31 67  1  0
 31 68  1  0
 32 69  1  0
 32 70  1  0
 33 71  1  0
 36 72  1  0
 36 73  1  0
 37 74  1  0
 37 75  1  0
 38 76  1  0
 38 77  1  0
 38 78  1  0
M  END
