
     RDKit          3D

 28 29  0  0  0  0  0  0  0  0999 V2000
  -19.5427  -13.2861   23.8450 C   0  0  0  0  0  0  0  0  0  0  0  0
  -20.6377  -14.1294   23.6504 C   0  0  0  0  0  0  0  0  0  0  0  0
  -19.6732  -12.1556   24.6535 C   0  0  0  0  0  0  0  0  0  0  0  0
  -21.8641  -13.8430   24.2641 C   0  0  0  0  0  0  0  0  0  0  0  0
  -20.8987  -11.8631   25.2680 C   0  0  0  0  0  0  0  0  0  0  0  0
  -23.3822  -12.4262   25.7077 C   0  0  0  0  0  0  0  0  0  0  0  0
  -22.0179  -12.6980   25.0721 C   0  0  0  0  0  0  0  0  0  0  0  0
  -24.3036   -7.2475   22.8303 N   0  0  0  0  0  0  0  0  0  0  0  0
  -26.8107   -7.9318   26.8550 N   0  0  0  0  0  0  0  0  0  0  0  0
  -24.7927  -12.1365   24.5345 S   0  0  0  0  0  0  0  0  0  0  0  0
  -25.5372   -7.6476   24.8490 N   0  0  0  0  0  0  0  0  0  0  0  0
  -26.0360   -8.4786   25.7934 C   0  0  0  0  0  0  0  0  0  0  0  0
  -25.7868   -9.8231   25.7166 N   0  0  0  0  0  0  0  0  0  0  0  0
  -25.0564  -10.3451   24.6799 C   0  0  0  0  0  0  0  0  0  0  0  0
  -24.6020   -9.4937   23.6812 C   0  0  0  0  0  0  0  0  0  0  0  0
  -24.8194   -8.1324   23.8089 C   0  0  0  0  0  0  0  0  0  0  0  0
  -18.5948  -13.5094   23.3727 H   0  0  0  0  0  0  0  0  0  0  0  0
  -20.5379  -15.0085   23.0270 H   0  0  0  0  0  0  0  0  0  0  0  0
  -18.8230  -11.5043   24.8094 H   0  0  0  0  0  0  0  0  0  0  0  0
  -22.7016  -14.5106   24.1032 H   0  0  0  0  0  0  0  0  0  0  0  0
  -20.9607  -10.9850   25.8953 H   0  0  0  0  0  0  0  0  0  0  0  0
  -23.6610  -13.3299   26.2900 H   0  0  0  0  0  0  0  0  0  0  0  0
  -23.3079  -11.6086   26.4540 H   0  0  0  0  0  0  0  0  0  0  0  0
  -24.2310   -6.2258   23.0335 H   0  0  0  0  0  0  0  0  0  0  0  0
  -23.9869   -7.5949   21.8973 H   0  0  0  0  0  0  0  0  0  0  0  0
  -27.4995   -7.1688   26.6711 H   0  0  0  0  0  0  0  0  0  0  0  0
  -26.6963   -8.2901   27.8289 H   0  0  0  0  0  0  0  0  0  0  0  0
  -24.0954   -9.8542   22.8006 H   0  0  0  0  0  0  0  0  0  0  0  0
  2  1  2  0
  3  1  1  0
  4  2  1  0
  5  3  2  0
  7  6  1  0
  7  5  1  0
  7  4  2  0
 10  6  1  0
 12  9  1  0
 12 11  2  0
 13 12  1  0
 14 10  1  0
 14 13  2  0
 15 14  1  0
 16 15  2  0
 16 11  1  0
 16  8  1  0
  1 17  1  0
  2 18  1  0
  3 19  1  0
  4 20  1  0
  5 21  1  0
  6 22  1  0
  6 23  1  0
  8 24  1  0
  8 25  1  0
  9 26  1  0
  9 27  1  0
 15 28  1  0
M  END
