
     RDKit          3D

 28 29  0  0  0  0  0  0  0  0999 V2000
    0.4540   21.8183   28.6091 C   0  0  0  0  0  0  0  0  0  0  0  0
    0.3092   20.4350   28.5154 C   0  0  0  0  0  0  0  0  0  0  0  0
    0.7156   22.4015   29.8515 C   0  0  0  0  0  0  0  0  0  0  0  0
    0.4293   19.6370   29.6618 C   0  0  0  0  0  0  0  0  0  0  0  0
    0.8354   21.6066   31.0031 C   0  0  0  0  0  0  0  0  0  0  0  0
    0.7659   19.2798   32.1465 C   0  0  0  0  0  0  0  0  0  0  0  0
    0.6847   20.2070   30.9267 C   0  0  0  0  0  0  0  0  0  0  0  0
    3.2283   13.3764   31.6364 N   0  0  0  0  0  0  0  0  0  0  0  0
    4.3659   16.7073   34.9037 N   0  0  0  0  0  0  0  0  0  0  0  0
    0.1720   17.5276   31.9124 S   0  0  0  0  0  0  0  0  0  0  0  0
    3.7605   15.0792   33.2493 N   0  0  0  0  0  0  0  0  0  0  0  0
    3.4981   16.2557   33.8682 C   0  0  0  0  0  0  0  0  0  0  0  0
    2.4019   16.9852   33.4952 N   0  0  0  0  0  0  0  0  0  0  0  0
    1.5739   16.5390   32.4939 C   0  0  0  0  0  0  0  0  0  0  0  0
    1.8722   15.3549   31.8428 C   0  0  0  0  0  0  0  0  0  0  0  0
    2.9580   14.6191   32.2594 C   0  0  0  0  0  0  0  0  0  0  0  0
    0.3640   22.4365   27.7253 H   0  0  0  0  0  0  0  0  0  0  0  0
    0.1068   19.9766   27.5560 H   0  0  0  0  0  0  0  0  0  0  0  0
    0.8307   23.4752   29.9261 H   0  0  0  0  0  0  0  0  0  0  0  0
    0.3116   18.5644   29.5672 H   0  0  0  0  0  0  0  0  0  0  0  0
    1.0444   22.0928   31.9457 H   0  0  0  0  0  0  0  0  0  0  0  0
    1.8421   19.1876   32.4044 H   0  0  0  0  0  0  0  0  0  0  0  0
    0.3050   19.7535   33.0373 H   0  0  0  0  0  0  0  0  0  0  0  0
    4.1481   12.8952   31.7555 H   0  0  0  0  0  0  0  0  0  0  0  0
    2.5019   12.9214   31.0402 H   0  0  0  0  0  0  0  0  0  0  0  0
    5.2223   17.2592   34.6748 H   0  0  0  0  0  0  0  0  0  0  0  0
    4.1522   16.4898   35.9022 H   0  0  0  0  0  0  0  0  0  0  0  0
    1.3196   15.0064   30.9857 H   0  0  0  0  0  0  0  0  0  0  0  0
  2  1  2  0
  3  1  1  0
  4  2  1  0
  5  3  2  0
  7  6  1  0
  7  5  1  0
  7  4  2  0
 10  6  1  0
 12 11  2  0
 12  9  1  0
 13 12  1  0
 14 13  2  0
 14 10  1  0
 15 14  1  0
 16 11  1  0
 16  8  1  0
 16 15  2  0
  1 17  1  0
  2 18  1  0
  3 19  1  0
  4 20  1  0
  5 21  1  0
  6 22  1  0
  6 23  1  0
  8 24  1  0
  8 25  1  0
  9 26  1  0
  9 27  1  0
 15 28  1  0
M  END
