
     RDKit          3D

 12 12  0  0  0  0  0  0  0  0999 V2000
   -5.7112   -1.1199   -3.0341 C   0  0  0  0  0  0  0  0  0  0  0  0
   -6.2186   -2.3563   -3.6518 C   0  0  0  0  0  0  0  0  0  0  0  0
   -5.4750   -3.2463   -4.1424 O   0  0  0  0  0  0  0  0  0  0  0  0
   -6.9821   -0.4322   -2.5347 C   0  0  0  0  0  0  0  0  0  0  0  0
   -8.1481   -1.1917   -3.1883 C   0  0  0  0  0  0  0  0  0  0  0  0
   -7.5952   -2.4076   -3.6731 O   0  0  0  0  0  0  0  0  0  0  0  0
   -5.2011   -0.4981   -3.8009 H   0  0  0  0  0  0  0  0  0  0  0  0
   -5.0197   -1.3515   -2.1958 H   0  0  0  0  0  0  0  0  0  0  0  0
   -7.0492   -0.5225   -1.4282 H   0  0  0  0  0  0  0  0  0  0  0  0
   -6.9955    0.6432   -2.8160 H   0  0  0  0  0  0  0  0  0  0  0  0
   -8.9562   -1.4022   -2.4559 H   0  0  0  0  0  0  0  0  0  0  0  0
   -8.5560   -0.6085   -4.0419 H   0  0  0  0  0  0  0  0  0  0  0  0
  2  1  1  0
  3  2  2  0
  4  1  1  0
  5  4  1  0
  6  5  1  0
  6  2  1  0
  1  7  1  0
  1  8  1  0
  4  9  1  0
  4 10  1  0
  5 11  1  0
  5 12  1  0
M  END
