
     RDKit          3D

 12 12  0  0  0  0  0  0  0  0999 V2000
   -6.9226    0.5603   -4.1068 C   0  0  0  0  0  0  0  0  0  0  0  0
   -7.5185   -0.5860   -4.8130 C   0  0  0  0  0  0  0  0  0  0  0  0
   -6.8430   -1.4591   -5.4190 O   0  0  0  0  0  0  0  0  0  0  0  0
   -8.1343    1.2563   -3.4863 C   0  0  0  0  0  0  0  0  0  0  0  0
   -9.3643    0.6187   -4.1528 C   0  0  0  0  0  0  0  0  0  0  0  0
   -8.8956   -0.5700   -4.7746 O   0  0  0  0  0  0  0  0  0  0  0  0
   -6.4139    1.2278   -4.8351 H   0  0  0  0  0  0  0  0  0  0  0  0
   -6.2092    0.2170   -3.3271 H   0  0  0  0  0  0  0  0  0  0  0  0
   -8.1593    1.0637   -2.3912 H   0  0  0  0  0  0  0  0  0  0  0  0
   -8.1041    2.3531   -3.6649 H   0  0  0  0  0  0  0  0  0  0  0  0
  -10.1506    0.3775   -3.4063 H   0  0  0  0  0  0  0  0  0  0  0  0
   -9.7772    1.2995   -4.9281 H   0  0  0  0  0  0  0  0  0  0  0  0
  2  1  1  0
  3  2  2  0
  4  1  1  0
  5  4  1  0
  6  5  1  0
  6  2  1  0
  1  7  1  0
  1  8  1  0
  4  9  1  0
  4 10  1  0
  5 11  1  0
  5 12  1  0
M  END
