
     RDKit          3D

 12 12  0  0  0  0  0  0  0  0999 V2000
   -4.1250  -21.6961   29.8765 C   0  0  0  0  0  0  0  0  0  0  0  0
   -5.5851  -21.8455   30.0569 C   0  0  0  0  0  0  0  0  0  0  0  0
   -6.1310  -22.7440   30.7426 O   0  0  0  0  0  0  0  0  0  0  0  0
   -4.0298  -20.3276   29.1950 C   0  0  0  0  0  0  0  0  0  0  0  0
   -5.4393  -20.0438   28.6501 C   0  0  0  0  0  0  0  0  0  0  0  0
   -6.3037  -20.8830   29.3929 O   0  0  0  0  0  0  0  0  0  0  0  0
   -3.7425  -22.4995   29.2112 H   0  0  0  0  0  0  0  0  0  0  0  0
   -3.5959  -21.7024   30.8536 H   0  0  0  0  0  0  0  0  0  0  0  0
   -3.7569  -19.5530   29.9452 H   0  0  0  0  0  0  0  0  0  0  0  0
   -3.2747  -20.3334   28.3795 H   0  0  0  0  0  0  0  0  0  0  0  0
   -5.7218  -18.9784   28.7870 H   0  0  0  0  0  0  0  0  0  0  0  0
   -5.4971  -20.3167   27.5742 H   0  0  0  0  0  0  0  0  0  0  0  0
  2  1  1  0
  3  2  2  0
  4  1  1  0
  5  4  1  0
  6  2  1  0
  6  5  1  0
  1  7  1  0
  1  8  1  0
  4  9  1  0
  4 10  1  0
  5 11  1  0
  5 12  1  0
M  END
