
     RDKit          3D

 22 22  0  0  0  0  0  0  0  0999 V2000
    2.4178   37.2576   19.1132 C   0  0  0  0  0  0  0  0  0  0  0  0
    1.3068   37.8581   19.1086 O   0  0  0  0  0  0  0  0  0  0  0  0
    3.5543   37.8993   18.6672 O   0  0  0  0  0  0  0  0  0  0  0  0
    2.4989   35.8618   19.5340 C   0  0  0  0  0  0  0  0  0  0  0  0
    3.6894   35.2415   19.6767 C   0  0  0  0  0  0  0  0  0  0  0  0
    3.7588   33.8570   20.2438 C   0  0  1  0  0  0  0  0  0  0  0  0
    3.6718   33.9489   21.6441 O   0  0  0  0  0  0  0  0  0  0  0  0
    2.6037   33.0037   19.6848 C   0  0  1  0  0  0  0  0  0  0  0  0
    1.2354   33.6567   19.9926 C   0  0  1  0  0  0  0  0  0  0  0  0
    1.1835   35.1698   19.7253 C   0  0  0  0  0  0  0  0  0  0  0  0
    0.1907   33.0079   19.3050 O   0  0  0  0  0  0  0  0  0  0  0  0
    2.7809   32.7783   18.3061 O   0  0  0  0  0  0  0  0  0  0  0  0
    3.7261   38.8712   18.8953 H   0  0  0  0  0  0  0  0  0  0  0  0
    4.6157   35.7690   19.4826 H   0  0  0  0  0  0  0  0  0  0  0  0
    4.7347   33.4028   19.9547 H   0  0  0  0  0  0  0  0  0  0  0  0
    4.5764   33.7462   21.9994 H   0  0  0  0  0  0  0  0  0  0  0  0
    2.6310   32.0109   20.1851 H   0  0  0  0  0  0  0  0  0  0  0  0
    1.0508   33.5089   21.0801 H   0  0  0  0  0  0  0  0  0  0  0  0
    0.5726   35.3619   18.8152 H   0  0  0  0  0  0  0  0  0  0  0  0
    0.6467   35.6586   20.5682 H   0  0  0  0  0  0  0  0  0  0  0  0
   -0.4302   33.6982   18.9544 H   0  0  0  0  0  0  0  0  0  0  0  0
    3.7533   32.7286   18.1162 H   0  0  0  0  0  0  0  0  0  0  0  0
  2  1  2  0
  3  1  1  0
  4  1  1  0
  5  4  2  0
  6  5  1  0
  6  7  1  0
  8  6  1  0
  9  8  1  0
 10  9  1  0
 10  4  1  0
  9 11  1  0
  8 12  1  0
  3 13  1  0
  5 14  1  0
  6 15  1  1
  7 16  1  0
  8 17  1  1
  9 18  1  1
 10 19  1  0
 10 20  1  0
 11 21  1  0
 12 22  1  0
M  END
