
     RDKit          3D

 22 22  0  0  0  0  0  0  0  0999 V2000
    1.9706   37.2791   18.4935 C   0  0  0  0  0  0  0  0  0  0  0  0
    0.8596   37.8796   18.4890 O   0  0  0  0  0  0  0  0  0  0  0  0
    3.1071   37.9208   18.0476 O   0  0  0  0  0  0  0  0  0  0  0  0
    2.0516   35.8832   18.9143 C   0  0  0  0  0  0  0  0  0  0  0  0
    2.9271   35.4875   19.8626 C   0  0  0  0  0  0  0  0  0  0  0  0
    2.8983   34.0826   20.3810 C   0  0  1  0  0  0  0  0  0  0  0  0
    1.8680   33.9846   21.3327 O   0  0  0  0  0  0  0  0  0  0  0  0
    2.6563   33.1004   19.2185 C   0  0  1  0  0  0  0  0  0  0  0  0
    1.3436   33.4392   18.4732 C   0  0  1  0  0  0  0  0  0  0  0  0
    1.1530   34.9361   18.1788 C   0  0  0  0  0  0  0  0  0  0  0  0
    1.2208   32.6929   17.2845 O   0  0  0  0  0  0  0  0  0  0  0  0
    3.7648   33.0830   18.3501 O   0  0  0  0  0  0  0  0  0  0  0  0
    3.7215   38.4002   18.6948 H   0  0  0  0  0  0  0  0  0  0  0  0
    3.5912   36.2010   20.3358 H   0  0  0  0  0  0  0  0  0  0  0  0
    3.8792   33.8607   20.8615 H   0  0  0  0  0  0  0  0  0  0  0  0
    1.5262   34.9053   21.4781 H   0  0  0  0  0  0  0  0  0  0  0  0
    2.5565   32.0773   19.6427 H   0  0  0  0  0  0  0  0  0  0  0  0
    0.5099   33.1273   19.1414 H   0  0  0  0  0  0  0  0  0  0  0  0
    1.2988   35.1185   17.0907 H   0  0  0  0  0  0  0  0  0  0  0  0
    0.0970   35.2074   18.4001 H   0  0  0  0  0  0  0  0  0  0  0  0
    1.1251   33.3253   16.5256 H   0  0  0  0  0  0  0  0  0  0  0  0
    4.4331   32.4404   18.7033 H   0  0  0  0  0  0  0  0  0  0  0  0
  2  1  2  0
  3  1  1  0
  4  1  1  0
  5  4  2  0
  6  5  1  0
  6  7  1  0
  8  6  1  0
  9  8  1  0
 10  9  1  0
 10  4  1  0
  9 11  1  0
  8 12  1  0
  3 13  1  0
  5 14  1  0
  6 15  1  1
  7 16  1  0
  8 17  1  1
  9 18  1  1
 10 19  1  0
 10 20  1  0
 11 21  1  0
 12 22  1  0
M  END
