
     RDKit          3D

 50 52  0  0  0  0  0  0  0  0999 V2000
   19.9465  -30.9137   13.4785 C   0  0  1  0  0  0  0  0  0  0  0  0
   18.9327  -32.0375   13.5514 C   0  0  2  0  0  0  0  0  0  0  0  0
   17.6095  -31.2875   13.3879 C   0  0  1  0  0  0  0  0  0  0  0  0
   17.8836  -30.0147   12.8226 O   0  0  0  0  0  0  0  0  0  0  0  0
   19.2492  -30.0054   12.4843 C   0  0  2  0  0  0  0  0  0  0  0  0
   19.3950  -30.5399   11.0797 C   0  0  0  0  0  0  0  0  0  0  0  0
   16.5065  -32.2190   12.2632 S   0  0  0  0  0  0  0  0  0  0  0  0
   20.0478  -30.2407   14.7117 O   0  0  0  0  0  0  0  0  0  0  0  0
   18.9692  -32.7481   14.7576 O   0  0  0  0  0  0  0  0  0  0  0  0
   20.3000  -30.0515   10.2554 C   0  0  0  0  0  0  0  0  0  0  0  0
   14.8720  -31.7539   12.8550 C   0  0  0  0  0  0  0  0  0  0  0  0
   20.4771  -30.6176    8.8810 C   0  0  0  0  0  0  0  0  0  0  0  0
   21.7218  -30.1074    8.3431 N   0  0  0  0  0  0  0  0  0  0  0  0
   22.4082  -30.6924    7.2541 C   0  0  0  0  0  0  0  0  0  0  0  0
   23.6513  -30.0615    6.7622 C   0  0  0  0  0  0  0  0  0  0  0  0
   23.9913  -28.7015    7.0071 C   0  0  0  0  0  0  0  0  0  0  0  0
   25.2228  -28.2045    6.5710 C   0  0  0  0  0  0  0  0  0  0  0  0
   26.1044  -29.0180    5.8620 C   0  0  0  0  0  0  0  0  0  0  0  0
   25.7717  -30.3543    5.6099 C   0  0  0  0  0  0  0  0  0  0  0  0
   24.5569  -30.8668    6.0710 C   0  0  0  0  0  0  0  0  0  0  0  0
   26.6589  -31.2038    4.8812 N   0  0  0  0  0  0  0  0  0  0  0  0
   23.1330  -27.7965    7.6306 O   0  0  0  0  0  0  0  0  0  0  0  0
   25.5500  -26.8760    6.8237 O   0  0  0  0  0  0  0  0  0  0  0  0
   22.0257  -31.8044    6.7955 O   0  0  0  0  0  0  0  0  0  0  0  0
   27.0495  -30.8754    3.6130 O   0  0  0  0  0  0  0  0  0  0  0  0
   27.0546  -32.2765    5.3772 O   0  0  0  0  0  0  0  0  0  0  0  0
   14.6613  -30.4067   13.1830 C   0  0  0  0  0  0  0  0  0  0  0  0
   13.4185  -29.9971   13.6767 C   0  0  0  0  0  0  0  0  0  0  0  0
   12.4122  -30.8973   13.8314 N   0  0  0  0  0  0  0  0  0  0  0  0
   12.5914  -32.2107   13.5296 C   0  0  0  0  0  0  0  0  0  0  0  0
   13.8261  -32.6683   13.0614 C   0  0  0  0  0  0  0  0  0  0  0  0
   20.9447  -31.2559   13.1160 H   0  0  0  0  0  0  0  0  0  0  0  0
   19.1039  -32.7481   12.7085 H   0  0  0  0  0  0  0  0  0  0  0  0
   17.1509  -31.1617   14.3913 H   0  0  0  0  0  0  0  0  0  0  0  0
   19.6402  -28.9668   12.5690 H   0  0  0  0  0  0  0  0  0  0  0  0
   18.7733  -31.3643   10.7436 H   0  0  0  0  0  0  0  0  0  0  0  0
   20.8650  -29.6798   14.6598 H   0  0  0  0  0  0  0  0  0  0  0  0
   19.4595  -33.5913   14.5726 H   0  0  0  0  0  0  0  0  0  0  0  0
   20.9161  -29.2226   10.5961 H   0  0  0  0  0  0  0  0  0  0  0  0
   19.6318  -30.3091    8.2299 H   0  0  0  0  0  0  0  0  0  0  0  0
   20.5196  -31.7275    8.9406 H   0  0  0  0  0  0  0  0  0  0  0  0
   22.3282  -29.5443    8.9806 H   0  0  0  0  0  0  0  0  0  0  0  0
   27.0468  -28.6116    5.5174 H   0  0  0  0  0  0  0  0  0  0  0  0
   24.3160  -31.9064    5.8858 H   0  0  0  0  0  0  0  0  0  0  0  0
   22.1262  -27.8488    7.5432 H   0  0  0  0  0  0  0  0  0  0  0  0
   25.2702  -26.1304    6.1968 H   0  0  0  0  0  0  0  0  0  0  0  0
   15.4540  -29.6798   13.0579 H   0  0  0  0  0  0  0  0  0  0  0  0
   13.2523  -28.9582   13.9283 H   0  0  0  0  0  0  0  0  0  0  0  0
   11.7794  -32.9094   13.6811 H   0  0  0  0  0  0  0  0  0  0  0  0
   13.9470  -33.7285   12.9042 H   0  0  0  0  0  0  0  0  0  0  0  0
  2  1  1  0
  3  2  1  0
  4  3  1  0
  5  4  1  0
  5  1  1  0
  5  6  1  0
  3  7  1  0
  1  8  1  0
  2  9  1  0
 10  6  2  3
 11  7  1  0
 12 10  1  0
 13 12  1  0
 14 13  1  0
 15 14  1  0
 16 15  2  0
 17 16  1  0
 18 17  2  0
 19 18  1  0
 20 19  2  0
 20 15  1  0
 21 19  1  0
 22 16  1  0
 23 17  1  0
 24 14  2  0
 25 21  1  0
 26 21  2  0
 27 11  2  0
 28 27  1  0
 29 28  2  0
 30 29  1  0
 31 30  2  0
 31 11  1  0
  1 32  1  6
  2 33  1  6
  3 34  1  1
  5 35  1  6
  6 36  1  0
  8 37  1  0
  9 38  1  0
 10 39  1  0
 12 40  1  0
 12 41  1  0
 13 42  1  0
 18 43  1  0
 20 44  1  0
 22 45  1  0
 23 46  1  0
 27 47  1  0
 28 48  1  0
 30 49  1  0
 31 50  1  0
M  CHG  2  21   1  25  -1
M  END
