
     RDKit          3D

 25 24  0  0  0  0  0  0  0  0999 V2000
   11.2389   12.6658   22.5036 P   0  0  0  0  0  0  0  0  0  0  0  0
    7.6563    6.3160   20.4627 O   0  0  0  0  0  0  0  0  0  0  0  0
    8.4732    7.3491   20.9428 C   0  0  0  0  0  0  0  0  0  0  0  0
    9.9209    7.0699   20.6245 C   0  0  0  0  0  0  0  0  0  0  0  0
   10.2446    5.9319   20.3167 O   0  0  0  0  0  0  0  0  0  0  0  0
   10.9714    8.1713   20.6465 C   0  0  1  0  0  0  0  0  0  0  0  0
   10.3907    9.4910   21.2082 C   0  0  1  0  0  0  0  0  0  0  0  0
   11.2421   10.0947   22.3417 C   0  0  0  0  0  0  0  0  0  0  0  0
   11.9020   11.2453   21.8625 O   0  0  0  0  0  0  0  0  0  0  0  0
    9.8293   12.9055   22.0088 O   0  0  0  0  0  0  0  0  0  0  0  0
   12.2472   13.9044   21.9949 O   0  0  0  0  0  0  0  0  0  0  0  0
   11.2714   12.5678   24.1774 O   0  0  0  0  0  0  0  0  0  0  0  0
   12.0727    7.7622   21.4276 O   0  0  0  0  0  0  0  0  0  0  0  0
   10.3014   10.4378   20.1679 O   0  0  0  0  0  0  0  0  0  0  0  0
    7.0405    6.0698   21.2020 H   0  0  0  0  0  0  0  0  0  0  0  0
    8.1623    8.2890   20.4408 H   0  0  0  0  0  0  0  0  0  0  0  0
    8.3402    7.4675   22.0419 H   0  0  0  0  0  0  0  0  0  0  0  0
   11.3032    8.3591   19.5982 H   0  0  0  0  0  0  0  0  0  0  0  0
    9.3758    9.2622   21.6170 H   0  0  0  0  0  0  0  0  0  0  0  0
   12.0207    9.3835   22.6878 H   0  0  0  0  0  0  0  0  0  0  0  0
   10.5945   10.2753   23.2311 H   0  0  0  0  0  0  0  0  0  0  0  0
   12.2181   13.8648   21.0055 H   0  0  0  0  0  0  0  0  0  0  0  0
   12.2239   12.4162   24.4027 H   0  0  0  0  0  0  0  0  0  0  0  0
   11.7229    7.5540   22.3334 H   0  0  0  0  0  0  0  0  0  0  0  0
    9.5532   10.1579   19.5787 H   0  0  0  0  0  0  0  0  0  0  0  0
  3  2  1  0
  4  3  1  0
  5  4  2  0
  6  4  1  0
  7  6  1  0
  8  7  1  0
  9  8  1  0
  9  1  1  0
 10  1  2  0
 11  1  1  0
 12  1  1  0
  6 13  1  0
  7 14  1  0
  2 15  1  0
  3 16  1  0
  3 17  1  0
  6 18  1  6
  7 19  1  1
  8 20  1  0
  8 21  1  0
 11 22  1  0
 12 23  1  0
 13 24  1  0
 14 25  1  0
M  END
