
     RDKit          3D

 36 37  0  0  0  0  0  0  0  0999 V2000
    3.2159   13.3308   30.2518 P   0  0  0  0  0  0  0  0  0  0  0  0
    3.1678   14.0219   28.9079 O   0  0  0  0  0  0  0  0  0  0  0  0
    4.0435   14.2763   31.3580 O   0  0  0  0  0  0  0  0  0  0  0  0
    1.6681   13.0285   30.8284 O   0  0  0  0  0  0  0  0  0  0  0  0
    3.7130   11.0903   29.1245 C   0  0  0  0  0  0  0  0  0  0  0  0
    4.0928   11.8947   30.1997 O   0  0  0  0  0  0  0  0  0  0  0  0
    4.5324    9.8011   29.2776 C   0  0  1  0  0  0  0  0  0  0  0  0
    4.0108    8.7949   28.4427 O   0  0  0  0  0  0  0  0  0  0  0  0
    6.0198   10.0191   28.9582 C   0  0  1  0  0  0  0  0  0  0  0  0
    6.8048    9.2921   29.8745 O   0  0  0  0  0  0  0  0  0  0  0  0
    6.1404    9.4531   27.5623 C   0  0  1  0  0  0  0  0  0  0  0  0
    7.4252    8.9411   27.2857 O   0  0  0  0  0  0  0  0  0  0  0  0
    5.0209    8.3968   27.5457 C   0  0  2  0  0  0  0  0  0  0  0  0
    4.4221    8.1935   26.2021 N   0  0  0  0  0  0  0  0  0  0  0  0
    3.7708    9.2319   25.5720 C   0  0  0  0  0  0  0  0  0  0  0  0
    3.1515    9.0433   24.3788 N   0  0  0  0  0  0  0  0  0  0  0  0
    3.7277   10.3779   26.0868 O   0  0  0  0  0  0  0  0  0  0  0  0
    4.9562    5.7971   26.2473 N   0  0  0  0  0  0  0  0  0  0  0  0
    3.1220    7.8302   23.7823 C   0  0  0  0  0  0  0  0  0  0  0  0
    2.5216    7.6811   22.6818 O   0  0  0  0  0  0  0  0  0  0  0  0
    3.7370    6.7520   24.3964 C   0  0  0  0  0  0  0  0  0  0  0  0
    4.3739    6.9426   25.6245 C   0  0  0  0  0  0  0  0  0  0  0  0
    4.7342   14.7445   30.8243 H   0  0  0  0  0  0  0  0  0  0  0  0
    1.0869   13.0747   30.0277 H   0  0  0  0  0  0  0  0  0  0  0  0
    3.9549   11.6002   28.1709 H   0  0  0  0  0  0  0  0  0  0  0  0
    2.6276   10.8467   29.1751 H   0  0  0  0  0  0  0  0  0  0  0  0
    4.4232    9.4540   30.3304 H   0  0  0  0  0  0  0  0  0  0  0  0
    6.3052   11.0984   28.9751 H   0  0  0  0  0  0  0  0  0  0  0  0
    6.5133    8.3449   29.8140 H   0  0  0  0  0  0  0  0  0  0  0  0
    5.9524   10.2715   26.8407 H   0  0  0  0  0  0  0  0  0  0  0  0
    8.0604    9.2881   27.9642 H   0  0  0  0  0  0  0  0  0  0  0  0
    5.4261    7.4612   27.9707 H   0  0  0  0  0  0  0  0  0  0  0  0
    2.6726    9.8501   23.9160 H   0  0  0  0  0  0  0  0  0  0  0  0
    5.8904    5.8441   26.7086 H   0  0  0  0  0  0  0  0  0  0  0  0
    4.6118    4.8408   26.0059 H   0  0  0  0  0  0  0  0  0  0  0  0
    3.7078    5.7724   23.9335 H   0  0  0  0  0  0  0  0  0  0  0  0
  2  1  2  0
  3  1  1  0
  4  1  1  0
  6  5  1  0
  6  1  1  0
  7  5  1  0
  8  7  1  0
  9  7  1  0
  9 10  1  0
 11  9  1  0
 11 12  1  0
 13  8  1  0
 13 11  1  0
 13 14  1  0
 15 14  1  0
 16 15  1  0
 17 15  2  0
 19 16  1  0
 20 19  2  0
 21 19  1  0
 22 21  2  0
 22 18  1  0
 22 14  1  0
  3 23  1  0
  4 24  1  0
  5 25  1  0
  5 26  1  0
  7 27  1  1
  9 28  1  6
 10 29  1  0
 11 30  1  6
 12 31  1  0
 13 32  1  1
 16 33  1  0
 18 34  1  0
 18 35  1  0
 21 36  1  0
M  END
