
     RDKit          3D

 62 65  0  0  0  0  0  0  0  0999 V2000
  -40.8131   18.2117   13.5594 C   0  0  0  0  0  0  0  0  0  0  0  0
  -42.0532   18.7276   13.1757 C   0  0  0  0  0  0  0  0  0  0  0  0
  -42.5856   16.6660   11.9637 C   0  0  0  0  0  0  0  0  0  0  0  0
  -44.6551   19.7579   12.3053 C   0  0  0  0  0  0  0  0  0  0  0  0
  -40.4911   16.9402   13.1148 C   0  0  0  0  0  0  0  0  0  0  0  0
  -42.9618   17.9541   12.3906 C   0  0  0  0  0  0  0  0  0  0  0  0
  -41.3383   16.1992   12.3423 C   0  0  0  0  0  0  0  0  0  0  0  0
  -44.2818   18.4664   11.9995 C   0  0  0  0  0  0  0  0  0  0  0  0
  -45.8994   20.2235   11.9058 C   0  0  0  0  0  0  0  0  0  0  0  0
  -39.3769   16.1525   13.2575 C   0  0  0  0  0  0  0  0  0  0  0  0
  -46.4073   18.0882   11.0539 C   0  0  0  0  0  0  0  0  0  0  0  0
  -50.0296   22.8892   10.9377 C   0  0  0  0  0  0  0  0  0  0  0  0
  -47.4110   23.9127   13.2484 C   0  0  0  0  0  0  0  0  0  0  0  0
  -46.0842   23.3731   13.7627 C   0  0  0  0  0  0  0  0  0  0  0  0
  -47.5208   22.0845   11.5363 C   0  0  0  0  0  0  0  0  0  0  0  0
  -48.2484   22.7834   12.6584 C   0  0  2  0  0  0  0  0  0  0  0  0
  -45.3559   22.5936   12.6768 C   0  0  2  0  0  0  0  0  0  0  0  0
  -44.7988   23.4842   11.5663 C   0  0  0  0  0  0  0  0  0  0  0  0
  -53.0617   22.3898   11.0226 C   0  0  0  0  0  0  0  0  0  0  0  0
  -53.1240   24.7891   10.3072 C   0  0  0  0  0  0  0  0  0  0  0  0
  -52.1450   24.2171   12.5388 C   0  0  0  0  0  0  0  0  0  0  0  0
  -52.3316   23.7402   11.0839 C   0  0  0  0  0  0  0  0  0  0  0  0
  -45.1715   17.6488   11.3863 N   0  0  0  0  0  0  0  0  0  0  0  0
  -46.7612   19.3673   11.3032 N   0  0  0  0  0  0  0  0  0  0  0  0
  -39.5711   14.9960   12.5916 N   0  0  0  0  0  0  0  0  0  0  0  0
  -40.7747   15.0173   12.0277 N   0  0  0  0  0  0  0  0  0  0  0  0
  -46.2706   21.5879   12.1037 N   0  0  0  0  0  0  0  0  0  0  0  0
  -38.1962   16.4822   13.9777 N   0  0  0  0  0  0  0  0  0  0  0  0
  -47.3305   17.2094   10.4340 N   0  0  0  0  0  0  0  0  0  0  0  0
  -49.4853   23.3180   12.1620 N   0  0  0  0  0  0  0  0  0  0  0  0
  -49.5864   21.8699   10.3366 O   0  0  0  0  0  0  0  0  0  0  0  0
  -51.0798   23.6284   10.4408 O   0  0  0  0  0  0  0  0  0  0  0  0
  -40.1200   18.7989   14.1476 H   0  0  0  0  0  0  0  0  0  0  0  0
  -42.2446   19.7501   13.4588 H   0  0  0  0  0  0  0  0  0  0  0  0
  -43.2320   16.0411   11.3602 H   0  0  0  0  0  0  0  0  0  0  0  0
  -44.0009   20.3265   12.9123 H   0  0  0  0  0  0  0  0  0  0  0  0
  -47.2424   24.7142   12.4973 H   0  0  0  0  0  0  0  0  0  0  0  0
  -47.9623   24.3706   14.0988 H   0  0  0  0  0  0  0  0  0  0  0  0
  -46.2745   22.7033   14.6313 H   0  0  0  0  0  0  0  0  0  0  0  0
  -45.4546   24.2171   14.1211 H   0  0  0  0  0  0  0  0  0  0  0  0
  -48.1764   21.2720   11.1590 H   0  0  0  0  0  0  0  0  0  0  0  0
  -47.3285   22.7677   10.6827 H   0  0  0  0  0  0  0  0  0  0  0  0
  -48.4375   22.0463   13.4728 H   0  0  0  0  0  0  0  0  0  0  0  0
  -44.4888   22.1951   13.2124 H   0  0  0  0  0  0  0  0  0  0  0  0
  -45.5249   23.5360   10.7270 H   0  0  0  0  0  0  0  0  0  0  0  0
  -43.8361   23.1215   11.1571 H   0  0  0  0  0  0  0  0  0  0  0  0
  -44.6515   24.5142   11.9550 H   0  0  0  0  0  0  0  0  0  0  0  0
  -53.1173   22.0292    9.9729 H   0  0  0  0  0  0  0  0  0  0  0  0
  -52.5485   21.6166   11.6293 H   0  0  0  0  0  0  0  0  0  0  0  0
  -54.0961   22.4928   11.4156 H   0  0  0  0  0  0  0  0  0  0  0  0
  -52.5082   25.7011   10.1496 H   0  0  0  0  0  0  0  0  0  0  0  0
  -53.4173   24.3938    9.3105 H   0  0  0  0  0  0  0  0  0  0  0  0
  -54.0468   25.0765   10.8562 H   0  0  0  0  0  0  0  0  0  0  0  0
  -53.1275   24.4815   12.9861 H   0  0  0  0  0  0  0  0  0  0  0  0
  -51.4951   25.1179   12.5697 H   0  0  0  0  0  0  0  0  0  0  0  0
  -51.7060   23.4346   13.1893 H   0  0  0  0  0  0  0  0  0  0  0  0
  -38.8990   14.2005   12.5178 H   0  0  0  0  0  0  0  0  0  0  0  0
  -38.0103   17.4638   14.2802 H   0  0  0  0  0  0  0  0  0  0  0  0
  -37.5013   15.7395   14.2123 H   0  0  0  0  0  0  0  0  0  0  0  0
  -47.8143   16.4708   10.9914 H   0  0  0  0  0  0  0  0  0  0  0  0
  -47.5353   17.2916    9.4133 H   0  0  0  0  0  0  0  0  0  0  0  0
  -49.9437   24.1117   12.6661 H   0  0  0  0  0  0  0  0  0  0  0  0
  2  1  2  0
  5  1  1  0
  6  3  2  0
  6  2  1  0
  7  5  1  0
  7  3  1  0
  8  4  2  0
  8  6  1  0
  9  4  1  0
 10  5  2  0
 14 13  1  0
 16 15  1  0
 16 13  1  0
 17 14  1  0
 17 18  1  0
 22 21  1  0
 22 20  1  0
 22 19  1  0
 23 11  2  0
 23  8  1  0
 24 11  1  0
 24  9  2  0
 25 10  1  0
 26 25  1  0
 26  7  2  0
 27 17  1  0
 27 15  1  0
 27  9  1  0
 28 10  1  0
 29 11  1  0
 30 12  1  0
 16 30  1  0
 31 12  2  0
 32 12  1  0
 32 22  1  0
  1 33  1  0
  2 34  1  0
  3 35  1  0
  4 36  1  0
 13 37  1  0
 13 38  1  0
 14 39  1  0
 14 40  1  0
 15 41  1  0
 15 42  1  0
 16 43  1  1
 17 44  1  1
 18 45  1  0
 18 46  1  0
 18 47  1  0
 19 48  1  0
 19 49  1  0
 19 50  1  0
 20 51  1  0
 20 52  1  0
 20 53  1  0
 21 54  1  0
 21 55  1  0
 21 56  1  0
 25 57  1  0
 28 58  1  0
 28 59  1  0
 29 60  1  0
 29 61  1  0
 30 62  1  0
M  END
