
     RDKit          3D

 16 16  0  0  0  0  0  0  0  0999 V2000
    6.7394   52.2537   74.2895 C   0  0  0  0  0  0  0  0  0  0  0  0
    7.4866   53.2621   74.3620 O   0  0  0  0  0  0  0  0  0  0  0  0
    5.3909   52.4011   74.0183 O   0  0  0  0  0  0  0  0  0  0  0  0
    8.3954   48.3544   73.8419 N   0  0  0  0  0  0  0  0  0  0  0  0
    6.9942   48.5170   74.0238 C   0  0  0  0  0  0  0  0  0  0  0  0
    6.2469   47.5103   74.0900 O   0  0  0  0  0  0  0  0  0  0  0  0
    6.4471   49.8263   74.1285 N   0  0  0  0  0  0  0  0  0  0  0  0
    7.3410   50.9144   74.4937 C   0  0  0  0  0  0  0  0  0  0  0  0
    8.6378   50.7985   73.8464 N   0  0  0  0  0  0  0  0  0  0  0  0
    9.2212   49.5072   73.7367 C   0  0  0  0  0  0  0  0  0  0  0  0
   10.4554   49.3844   73.5430 O   0  0  0  0  0  0  0  0  0  0  0  0
    4.9252   53.2886   74.1654 H   0  0  0  0  0  0  0  0  0  0  0  0
    8.8111   47.3986   73.7681 H   0  0  0  0  0  0  0  0  0  0  0  0
    5.4129   49.9403   74.2317 H   0  0  0  0  0  0  0  0  0  0  0  0
    7.5217   50.8132   75.5880 H   0  0  0  0  0  0  0  0  0  0  0  0
    9.2423   51.6432   73.7250 H   0  0  0  0  0  0  0  0  0  0  0  0
  2  1  2  0
  3  1  1  0
  5  4  1  0
  6  5  2  0
  7  5  1  0
  8  7  1  0
  8  1  1  0
  9  8  1  0
 10  4  1  0
 10  9  1  0
 11 10  2  0
  3 12  1  0
  4 13  1  0
  7 14  1  0
  8 15  1  0
  9 16  1  0
M  END
