
     RDKit          3D

 36 37  0  0  0  0  0  0  0  0999 V2000
    4.9975    8.1242   30.2272 P   0  0  0  0  0  0  0  0  0  0  0  0
    5.9838    8.5384   28.9337 O   0  0  0  0  0  0  0  0  0  0  0  0
    3.3864    8.3771   29.8350 O   0  0  0  0  0  0  0  0  0  0  0  0
    5.3616    8.9405   31.4411 O   0  0  0  0  0  0  0  0  0  0  0  0
    4.7697    5.6002   29.7601 C   0  0  0  0  0  0  0  0  0  0  0  0
    5.2478    6.5294   30.6894 O   0  0  0  0  0  0  0  0  0  0  0  0
    5.7834    4.4464   29.8053 C   0  0  1  0  0  0  0  0  0  0  0  0
    5.4062    3.4215   28.9167 O   0  0  0  0  0  0  0  0  0  0  0  0
    7.1980    4.9110   29.4372 C   0  0  1  0  0  0  0  0  0  0  0  0
    8.1699    4.1699   30.1409 O   0  0  0  0  0  0  0  0  0  0  0  0
    7.2437    4.6402   27.9543 C   0  0  1  0  0  0  0  0  0  0  0  0
    8.5514    4.3692   27.4983 O   0  0  0  0  0  0  0  0  0  0  0  0
    6.2701    3.4601   27.7989 C   0  0  2  0  0  0  0  0  0  0  0  0
    5.4269    3.5489   26.5495 C   0  0  0  0  0  0  0  0  0  0  0  0
    3.9203    4.2719   25.1525 N   0  0  0  0  0  0  0  0  0  0  0  0
    5.8706    1.3207   25.5190 O   0  0  0  0  0  0  0  0  0  0  0  0
    5.2556    2.5696   25.5833 C   0  0  0  0  0  0  0  0  0  0  0  0
    4.5809    4.5665   26.2686 N   0  0  0  0  0  0  0  0  0  0  0  0
    3.7871    1.1127   23.4703 O   0  0  0  0  0  0  0  0  0  0  0  0
    4.3106    3.0632   24.7028 C   0  0  0  0  0  0  0  0  0  0  0  0
    3.1426    3.0968   22.4694 N   0  0  0  0  0  0  0  0  0  0  0  0
    3.7352    2.3677   23.5391 C   0  0  0  0  0  0  0  0  0  0  0  0
    6.3095    9.4497   29.1440 H   0  0  0  0  0  0  0  0  0  0  0  0
    3.2461    9.3498   29.9578 H   0  0  0  0  0  0  0  0  0  0  0  0
    3.7665    5.2128   30.0484 H   0  0  0  0  0  0  0  0  0  0  0  0
    4.7308    6.0511   28.7445 H   0  0  0  0  0  0  0  0  0  0  0  0
    5.7824    4.0323   30.8387 H   0  0  0  0  0  0  0  0  0  0  0  0
    7.3772    5.9902   29.6339 H   0  0  0  0  0  0  0  0  0  0  0  0
    8.6090    4.7678   30.8019 H   0  0  0  0  0  0  0  0  0  0  0  0
    6.8608    5.5369   27.4171 H   0  0  0  0  0  0  0  0  0  0  0  0
    8.9962    5.2228   27.2587 H   0  0  0  0  0  0  0  0  0  0  0  0
    6.8397    2.5096   27.7990 H   0  0  0  0  0  0  0  0  0  0  0  0
    3.1969    4.8898   24.7222 H   0  0  0  0  0  0  0  0  0  0  0  0
    6.5535    1.0167   26.1996 H   0  0  0  0  0  0  0  0  0  0  0  0
    2.6618    4.0088   22.6162 H   0  0  0  0  0  0  0  0  0  0  0  0
    3.0300    2.6405   21.5369 H   0  0  0  0  0  0  0  0  0  0  0  0
  2  1  1  0
  3  1  1  0
  4  1  2  0
  6  5  1  0
  6  1  1  0
  7  5  1  0
  8  7  1  0
  9  7  1  0
  9 10  1  0
 11  9  1  0
 11 12  1  0
 13  8  1  0
 13 11  1  0
 13 14  1  0
 17 16  1  0
 17 14  1  0
 18 15  1  0
 18 14  2  0
 20 15  1  0
 20 17  2  0
 22 21  1  0
 22 20  1  0
 22 19  2  0
  2 23  1  0
  3 24  1  0
  5 25  1  0
  5 26  1  0
  7 27  1  1
  9 28  1  6
 10 29  1  0
 11 30  1  6
 12 31  1  0
 13 32  1  6
 15 33  1  0
 16 34  1  0
 21 35  1  0
 21 36  1  0
M  END
