
     RDKit          3D

 23 23  0  0  0  0  0  0  0  0999 V2000
   17.1150  -16.2876  -57.2172 N   0  0  0  0  0  0  0  0  0  0  0  0
   18.1028  -15.2326  -57.4816 C   0  0  2  0  0  0  0  0  0  0  0  0
   17.4690  -14.1031  -58.2262 C   0  0  0  0  0  0  0  0  0  0  0  0
   16.2784  -13.7684  -57.9944 O   0  0  0  0  0  0  0  0  0  0  0  0
   19.2976  -15.7732  -58.2922 C   0  0  0  0  0  0  0  0  0  0  0  0
   19.1548  -17.2495  -58.5409 C   0  0  0  0  0  0  0  0  0  0  0  0
   20.2389  -18.1148  -58.3075 C   0  0  0  0  0  0  0  0  0  0  0  0
   17.9169  -17.7815  -58.9283 C   0  0  0  0  0  0  0  0  0  0  0  0
   20.0709  -19.4924  -58.4126 C   0  0  0  0  0  0  0  0  0  0  0  0
   17.7665  -19.1578  -59.0758 C   0  0  0  0  0  0  0  0  0  0  0  0
   18.8385  -20.0109  -58.8117 C   0  0  0  0  0  0  0  0  0  0  0  0
   18.1914  -13.4524  -59.2077 O   0  0  0  0  0  0  0  0  0  0  0  0
   18.5675  -22.0792  -58.9936 I   0  0  0  0  0  0  0  0  0  0  0  0
   17.5944  -17.1229  -56.8139 H   0  0  0  0  0  0  0  0  0  0  0  0
   16.4773  -15.9663  -56.4518 H   0  0  0  0  0  0  0  0  0  0  0  0
   18.4641  -14.8225  -56.5124 H   0  0  0  0  0  0  0  0  0  0  0  0
   19.3694  -15.2246  -59.2584 H   0  0  0  0  0  0  0  0  0  0  0  0
   20.2406  -15.5934  -57.7315 H   0  0  0  0  0  0  0  0  0  0  0  0
   21.2097  -17.7294  -58.0254 H   0  0  0  0  0  0  0  0  0  0  0  0
   17.0673  -17.1346  -59.1085 H   0  0  0  0  0  0  0  0  0  0  0  0
   20.9021  -20.1551  -58.2091 H   0  0  0  0  0  0  0  0  0  0  0  0
   16.8092  -19.5633  -59.3768 H   0  0  0  0  0  0  0  0  0  0  0  0
   17.7689  -13.2245  -60.0998 H   0  0  0  0  0  0  0  0  0  0  0  0
  2  1  1  0
  3  2  1  0
  4  3  2  0
  5  2  1  0
  6  5  1  0
  7  6  2  0
  8  6  1  0
  9  7  1  0
 10  8  2  0
 11 10  1  0
 11  9  2  0
 12  3  1  0
 13 11  1  0
  1 14  1  0
  1 15  1  0
  2 16  1  1
  5 17  1  0
  5 18  1  0
  7 19  1  0
  8 20  1  0
  9 21  1  0
 10 22  1  0
 12 23  1  0
M  END
