
     RDKit          3D

 19 19  0  0  0  0  0  0  0  0999 V2000
  -19.9352  -14.0982   24.8717 C   0  0  0  0  0  0  0  0  0  0  0  0
  -17.3880  -13.1584   24.1804 N   0  0  0  0  0  0  0  0  0  0  0  0
  -18.4932  -12.6838   26.5259 O   0  0  0  0  0  0  0  0  0  0  0  0
  -18.3633  -13.7365   25.4704 S   0  0  0  0  0  0  0  0  0  0  0  0
  -22.1451  -14.1897   24.0544 C   0  0  0  0  0  0  0  0  0  0  0  0
  -21.4117  -15.2444   23.6743 N   0  0  0  0  0  0  0  0  0  0  0  0
  -17.7641  -14.9892   26.0332 O   0  0  0  0  0  0  0  0  0  0  0  0
  -21.2755  -13.0985   25.0178 S   0  0  0  0  0  0  0  0  0  0  0  0
  -23.8873  -13.9811   22.2898 C   0  0  0  0  0  0  0  0  0  0  0  0
  -20.1743  -15.1945   24.1381 N   0  0  0  0  0  0  0  0  0  0  0  0
  -23.0862  -13.5816   21.4044 O   0  0  0  0  0  0  0  0  0  0  0  0
  -25.2646  -14.3994   21.9328 C   0  0  0  0  0  0  0  0  0  0  0  0
  -23.4932  -14.0620   23.6467 N   0  0  0  0  0  0  0  0  0  0  0  0
  -17.4332  -13.8717   23.4184 H   0  0  0  0  0  0  0  0  0  0  0  0
  -16.4018  -13.1468   24.5244 H   0  0  0  0  0  0  0  0  0  0  0  0
  -26.0027  -13.9426   22.6259 H   0  0  0  0  0  0  0  0  0  0  0  0
  -25.3492  -15.5044   21.9982 H   0  0  0  0  0  0  0  0  0  0  0  0
  -25.4955  -14.0747   20.8967 H   0  0  0  0  0  0  0  0  0  0  0  0
  -24.2293  -14.0178   24.3878 H   0  0  0  0  0  0  0  0  0  0  0  0
  4  3  2  0
  4  2  1  0
  4  1  1  0
  6  5  2  0
  7  4  2  0
  8  5  1  0
  8  1  1  0
 10  6  1  0
 10  1  2  0
 11  9  2  0
 12  9  1  0
 13  9  1  0
 13  5  1  0
  2 14  1  0
  2 15  1  0
 12 16  1  0
 12 17  1  0
 12 18  1  0
 13 19  1  0
M  END
