
     RDKit          3D

 27 26  0  0  0  0  0  0  0  0999 V2000
   32.1478    0.9160   52.5280 N   0  0  0  0  0  0  0  0  0  0  0  0
   32.7272    0.2507   51.4110 C   0  0  0  0  0  0  0  0  0  0  0  0
   33.9310    0.4271   51.0968 O   0  0  0  0  0  0  0  0  0  0  0  0
   33.7121    1.2709   54.3446 C   0  0  0  0  0  0  0  0  0  0  0  0
   32.8253    1.9533   53.3023 C   0  0  2  0  0  0  0  0  0  0  0  0
   31.7406    2.8314   53.9392 C   0  0  0  0  0  0  0  0  0  0  0  0
   32.2447    3.8434   54.9729 C   0  0  0  0  0  0  0  0  0  0  0  0
   31.1380    4.0701   56.0132 C   0  0  0  0  0  0  0  0  0  0  0  0
   31.6684    4.6813   57.3103 C   0  0  0  0  0  0  0  0  0  0  0  0
   33.1915    4.5755   57.3678 C   0  0  0  0  0  0  0  0  0  0  0  0
   31.2093    0.5806   52.8447 H   0  0  0  0  0  0  0  0  0  0  0  0
   32.1288   -0.4442   50.8369 H   0  0  0  0  0  0  0  0  0  0  0  0
   34.3578    2.0143   54.8561 H   0  0  0  0  0  0  0  0  0  0  0  0
   34.3801    0.5358   53.8468 H   0  0  0  0  0  0  0  0  0  0  0  0
   33.0956    0.7363   55.0988 H   0  0  0  0  0  0  0  0  0  0  0  0
   33.4571    2.5840   52.6383 H   0  0  0  0  0  0  0  0  0  0  0  0
   30.9868    2.1668   54.4192 H   0  0  0  0  0  0  0  0  0  0  0  0
   31.2232    3.3879   53.1256 H   0  0  0  0  0  0  0  0  0  0  0  0
   33.1465    3.4350   55.4756 H   0  0  0  0  0  0  0  0  0  0  0  0
   32.5078    4.8044   54.4801 H   0  0  0  0  0  0  0  0  0  0  0  0
   30.3520    4.7295   55.5834 H   0  0  0  0  0  0  0  0  0  0  0  0
   30.6619    3.0948   56.2625 H   0  0  0  0  0  0  0  0  0  0  0  0
   31.3951    5.7572   57.3714 H   0  0  0  0  0  0  0  0  0  0  0  0
   31.2225    4.1541   58.1814 H   0  0  0  0  0  0  0  0  0  0  0  0
   33.6583    5.5700   57.2017 H   0  0  0  0  0  0  0  0  0  0  0  0
   33.5582    3.8629   56.5984 H   0  0  0  0  0  0  0  0  0  0  0  0
   33.4993    4.2051   58.3683 H   0  0  0  0  0  0  0  0  0  0  0  0
  2  1  1  0
  3  2  2  0
  5  1  1  0
  5  4  1  0
  6  5  1  0
  7  6  1  0
  8  7  1  0
  9  8  1  0
 10  9  1  0
  1 11  1  0
  2 12  1  0
  4 13  1  0
  4 14  1  0
  4 15  1  0
  5 16  1  6
  6 17  1  0
  6 18  1  0
  7 19  1  0
  7 20  1  0
  8 21  1  0
  8 22  1  0
  9 23  1  0
  9 24  1  0
 10 25  1  0
 10 26  1  0
 10 27  1  0
M  END
