
     RDKit          3D

 27 26  0  0  0  0  0  0  0  0999 V2000
   18.1726   40.3357   15.9552 N   0  0  0  0  0  0  0  0  0  0  0  0
   17.2798   40.5307   17.0496 C   0  0  0  0  0  0  0  0  0  0  0  0
   16.0540   40.7380   16.8635 O   0  0  0  0  0  0  0  0  0  0  0  0
   20.5205   39.7128   16.1387 C   0  0  0  0  0  0  0  0  0  0  0  0
   19.1025   39.2106   15.8470 C   0  0  2  0  0  0  0  0  0  0  0  0
   18.9670   38.6179   14.4344 C   0  0  0  0  0  0  0  0  0  0  0  0
   19.9851   37.5185   14.1005 C   0  0  0  0  0  0  0  0  0  0  0  0
   20.3128   36.7251   15.3753 C   0  0  0  0  0  0  0  0  0  0  0  0
   20.9016   35.3410   15.0845 C   0  0  0  0  0  0  0  0  0  0  0  0
   22.2955   35.2218   15.6984 C   0  0  0  0  0  0  0  0  0  0  0  0
   18.1683   41.0589   15.2001 H   0  0  0  0  0  0  0  0  0  0  0  0
   17.6549   40.4571   18.0618 H   0  0  0  0  0  0  0  0  0  0  0  0
   21.1229   38.9224   16.6322 H   0  0  0  0  0  0  0  0  0  0  0  0
   20.4761   40.5812   16.8301 H   0  0  0  0  0  0  0  0  0  0  0  0
   21.0256   40.0307   15.2015 H   0  0  0  0  0  0  0  0  0  0  0  0
   18.8403   38.4244   16.5893 H   0  0  0  0  0  0  0  0  0  0  0  0
   19.0598   39.4416   13.6913 H   0  0  0  0  0  0  0  0  0  0  0  0
   17.9441   38.1907   14.3336 H   0  0  0  0  0  0  0  0  0  0  0  0
   19.5452   36.8351   13.3440 H   0  0  0  0  0  0  0  0  0  0  0  0
   20.9145   37.9641   13.6842 H   0  0  0  0  0  0  0  0  0  0  0  0
   19.3788   36.5853   15.9652 H   0  0  0  0  0  0  0  0  0  0  0  0
   21.0217   37.3085   16.0033 H   0  0  0  0  0  0  0  0  0  0  0  0
   20.2598   34.5472   15.5248 H   0  0  0  0  0  0  0  0  0  0  0  0
   20.9588   35.1818   13.9860 H   0  0  0  0  0  0  0  0  0  0  0  0
   22.7704   34.2642   15.3956 H   0  0  0  0  0  0  0  0  0  0  0  0
   22.9377   36.0698   15.3774 H   0  0  0  0  0  0  0  0  0  0  0  0
   22.2148   35.2417   16.8056 H   0  0  0  0  0  0  0  0  0  0  0  0
  2  1  1  0
  3  2  2  0
  5  1  1  0
  5  4  1  0
  6  5  1  0
  7  6  1  0
  8  7  1  0
  9  8  1  0
 10  9  1  0
  1 11  1  0
  2 12  1  0
  4 13  1  0
  4 14  1  0
  4 15  1  0
  5 16  1  1
  6 17  1  0
  6 18  1  0
  7 19  1  0
  7 20  1  0
  8 21  1  0
  8 22  1  0
  9 23  1  0
  9 24  1  0
 10 25  1  0
 10 26  1  0
 10 27  1  0
M  END
