
     RDKit          3D

 48 50  0  0  0  0  0  0  0  0999 V2000
    5.6509   11.6869   23.3670 C   0  0  0  0  0  0  0  0  0  0  0  0
    2.9021   11.4758   24.4993 N   0  0  0  0  0  0  0  0  0  0  0  0
    5.1594   12.8329   23.9980 C   0  0  0  0  0  0  0  0  0  0  0  0
    2.7400    9.3187   23.8073 N   0  0  0  0  0  0  0  0  0  0  0  0
    5.4138   14.9394   25.0642 O   0  0  0  0  0  0  0  0  0  0  0  0
    6.0090   13.8376   24.4434 C   0  0  0  0  0  0  0  0  0  0  0  0
   -0.0191   10.5246   26.5062 N   0  0  0  0  0  0  0  0  0  0  0  0
    7.3955   13.7197   24.2573 C   0  0  0  0  0  0  0  0  0  0  0  0
    0.8328    8.7286   25.1883 N   0  0  0  0  0  0  0  0  0  0  0  0
    7.9136   12.5922   23.6262 C   0  0  0  0  0  0  0  0  0  0  0  0
    0.9524   12.7411   26.4572 N   0  0  0  0  0  0  0  0  0  0  0  0
    7.0555   11.5657   23.1762 C   0  0  0  0  0  0  0  0  0  0  0  0
    6.1096   16.1135   25.4531 C   0  0  0  0  0  0  0  0  0  0  0  0
    4.6518   10.6719   22.8281 C   0  0  0  0  0  0  0  0  0  0  0  0
    3.4160   10.4903   23.7018 C   0  0  0  0  0  0  0  0  0  0  0  0
    1.8630   10.8691   25.1143 C   0  0  0  0  0  0  0  0  0  0  0  0
    1.7750    9.5777   24.7097 C   0  0  0  0  0  0  0  0  0  0  0  0
    0.9354   11.3784   26.0305 C   0  0  0  0  0  0  0  0  0  0  0  0
   -0.0725    9.2150   26.0932 C   0  0  0  0  0  0  0  0  0  0  0  0
    3.0655    8.0536   23.1370 C   0  0  0  0  0  0  0  0  0  0  0  0
    3.2626    6.8737   24.1147 C   0  0  0  0  0  0  0  0  0  0  0  0
    1.9977    6.2735   24.7723 C   0  0  0  0  0  0  0  0  0  0  0  0
    1.0718    5.4746   23.8449 C   0  0  0  0  0  0  0  0  0  0  0  0
    7.6353    9.1475   23.2050 C   0  0  0  0  0  0  0  0  0  0  0  0
    7.5882   10.4237   22.5649 O   0  0  0  0  0  0  0  0  0  0  0  0
    4.0942   12.9745   24.1302 H   0  0  0  0  0  0  0  0  0  0  0  0
    8.0739   14.4918   24.5944 H   0  0  0  0  0  0  0  0  0  0  0  0
    8.9841   12.5309   23.4893 H   0  0  0  0  0  0  0  0  0  0  0  0
    0.2407   13.0880   27.1378 H   0  0  0  0  0  0  0  0  0  0  0  0
    1.6729   13.4057   26.0972 H   0  0  0  0  0  0  0  0  0  0  0  0
    5.3884   16.8351   25.8885 H   0  0  0  0  0  0  0  0  0  0  0  0
    6.5930   16.5812   24.5693 H   0  0  0  0  0  0  0  0  0  0  0  0
    6.8736   15.8678   26.2206 H   0  0  0  0  0  0  0  0  0  0  0  0
    5.1406    9.6934   22.6773 H   0  0  0  0  0  0  0  0  0  0  0  0
    4.3258   11.0150   21.8235 H   0  0  0  0  0  0  0  0  0  0  0  0
   -0.8371    8.5607   26.4886 H   0  0  0  0  0  0  0  0  0  0  0  0
    2.3024    7.7957   22.3766 H   0  0  0  0  0  0  0  0  0  0  0  0
    4.0132    8.1935   22.5732 H   0  0  0  0  0  0  0  0  0  0  0  0
    3.7850    6.0563   23.5717 H   0  0  0  0  0  0  0  0  0  0  0  0
    3.9512    7.2059   24.9217 H   0  0  0  0  0  0  0  0  0  0  0  0
    2.3213    5.5950   25.5911 H   0  0  0  0  0  0  0  0  0  0  0  0
    1.4219    7.0908   25.2542 H   0  0  0  0  0  0  0  0  0  0  0  0
    0.2712    6.1337   23.4483 H   0  0  0  0  0  0  0  0  0  0  0  0
    1.6422    5.0450   23.0035 H   0  0  0  0  0  0  0  0  0  0  0  0
    0.6050    4.6404   24.4097 H   0  0  0  0  0  0  0  0  0  0  0  0
    7.9339    8.3819   22.4600 H   0  0  0  0  0  0  0  0  0  0  0  0
    8.3905    9.1521   24.0185 H   0  0  0  0  0  0  0  0  0  0  0  0
    6.6344    8.8805   23.6064 H   0  0  0  0  0  0  0  0  0  0  0  0
  3  1  2  0
  6  5  1  0
  6  3  1  0
  8  6  2  0
 10  8  1  0
 12  1  1  0
 12 10  2  0
 13  5  1  0
 14  1  1  0
 15 14  1  0
 15  4  1  0
 15  2  2  0
 16  2  1  0
 17 16  2  0
 17  9  1  0
 17  4  1  0
 18 16  1  0
 18  7  2  0
 18 11  1  0
 19  9  2  0
 19  7  1  0
 20  4  1  0
 21 20  1  0
 22 21  1  0
 23 22  1  0
 25 24  1  0
 25 12  1  0
  3 26  1  0
  8 27  1  0
 10 28  1  0
 11 29  1  0
 11 30  1  0
 13 31  1  0
 13 32  1  0
 13 33  1  0
 14 34  1  0
 14 35  1  0
 19 36  1  0
 20 37  1  0
 20 38  1  0
 21 39  1  0
 21 40  1  0
 22 41  1  0
 22 42  1  0
 23 43  1  0
 23 44  1  0
 23 45  1  0
 24 46  1  0
 24 47  1  0
 24 48  1  0
M  END
