
     RDKit          3D

 93 95  0  0  0  0  0  0  0  0999 V2000
   24.4365   -6.2029   -1.2601 N   0  0  0  0  0  0  0  0  0  0  0  0
   26.7579   -4.1609    7.2777 C   0  0  2  0  0  0  0  0  0  0  0  0
   26.7557   -5.2006    8.2248 O   0  0  0  0  0  0  0  0  0  0  0  0
   26.7957   -4.7174    5.8446 C   0  0  1  0  0  0  0  0  0  0  0  0
   24.4658   -5.2586    5.7113 O   0  0  0  0  0  0  0  0  0  0  0  0
   25.6504   -5.6521    5.5831 C   0  0  0  0  0  0  0  0  0  0  0  0
   25.9001   -6.9419    5.1382 O   0  0  0  0  0  0  0  0  0  0  0  0
   26.8047   -3.5419    4.8488 C   0  0  2  0  0  0  0  0  0  0  0  0
   24.8053   -3.1622    2.5259 O   0  0  0  0  0  0  0  0  0  0  0  0
   26.9441   -4.0862    3.4076 C   0  0  0  0  0  0  0  0  0  0  0  0
   26.0144   -4.8883    0.5958 O   0  0  0  0  0  0  0  0  0  0  0  0
   26.2046   -3.3260    2.2958 C   0  0  2  0  0  0  0  0  0  0  0  0
   22.8298   -7.9155    0.5358 O   0  0  0  0  0  0  0  0  0  0  0  0
   24.0847   -4.2679    1.9722 C   0  0  2  0  0  0  0  0  0  0  0  0
   24.1381   -5.3817    2.8552 O   0  0  0  0  0  0  0  0  0  0  0  0
   24.6331   -4.6169    0.5849 C   0  0  2  0  0  0  0  0  0  0  0  0
   32.0800    6.4747    2.5886 O   0  0  0  0  0  0  0  0  0  0  0  0
   23.8248   -5.7823   -0.0019 C   0  0  2  0  0  0  0  0  0  0  0  0
   32.4704    4.8826    0.9908 O   0  0  0  0  0  0  0  0  0  0  0  0
   23.7382   -6.9489    1.0048 C   0  0  1  0  0  0  0  0  0  0  0  0
   28.8648    0.7466    5.6109 O   0  0  0  0  0  0  0  0  0  0  0  0
   23.2936   -6.4354    2.3971 C   0  0  1  0  0  0  0  0  0  0  0  0
   27.0074   -1.2286    6.5947 O   0  0  0  0  0  0  0  0  0  0  0  0
   23.3615   -7.5751    3.4151 C   0  0  0  0  0  0  0  0  0  0  0  0
   27.9480   -2.7478    5.0871 O   0  0  0  0  0  0  0  0  0  0  0  0
   26.8665   -2.0730    1.8539 C   0  0  0  0  0  0  0  0  0  0  0  0
   26.8409   -0.8941    2.4525 C   0  0  0  0  0  0  0  0  0  0  0  0
   27.5705    0.1650    1.7486 C   0  0  0  0  0  0  0  0  0  0  0  0
   27.5808    1.4191    2.1496 C   0  0  0  0  0  0  0  0  0  0  0  0
   28.3235    2.4272    1.3684 C   0  0  0  0  0  0  0  0  0  0  0  0
   28.4354    3.6667    1.8411 C   0  0  0  0  0  0  0  0  0  0  0  0
   29.1579    4.7714    1.1605 C   0  0  0  0  0  0  0  0  0  0  0  0
   29.4137    5.8941    1.8681 C   0  0  0  0  0  0  0  0  0  0  0  0
   30.0455    7.1798    1.3462 C   0  0  0  0  0  0  0  0  0  0  0  0
   31.5775    7.3878    1.6291 C   0  0  1  0  0  0  0  0  0  0  0  0
   31.9513    8.7896    2.0979 C   0  0  0  0  0  0  0  0  0  0  0  0
   32.3562    5.1769    2.2116 C   0  0  0  0  0  0  0  0  0  0  0  0
   32.3633    4.1576    3.2383 C   0  0  0  0  0  0  0  0  0  0  0  0
   31.7371    3.0121    3.0273 C   0  0  0  0  0  0  0  0  0  0  0  0
   31.6455    2.0243    4.0892 C   0  0  0  0  0  0  0  0  0  0  0  0
   31.0488    0.8647    3.8585 C   0  0  0  0  0  0  0  0  0  0  0  0
   30.9712   -0.1718    4.9270 C   0  0  0  0  0  0  0  0  0  0  0  0
   29.5153   -0.4499    5.2565 C   0  0  1  0  0  0  0  0  0  0  0  0
   29.4046   -1.4608    6.4215 C   0  0  0  0  0  0  0  0  0  0  0  0
   28.0367   -2.1696    6.3835 C   0  0  1  0  0  0  0  0  0  0  0  0
   27.9662   -3.2395    7.4956 C   0  0  0  0  0  0  0  0  0  0  0  0
   23.7708   -6.8320   -1.7648 H   0  0  0  0  0  0  0  0  0  0  0  0
   25.3056   -6.7547   -1.0734 H   0  0  0  0  0  0  0  0  0  0  0  0
   25.8273   -3.5671    7.4203 H   0  0  0  0  0  0  0  0  0  0  0  0
   27.5744   -5.7448    8.0828 H   0  0  0  0  0  0  0  0  0  0  0  0
   27.7420   -5.2924    5.7158 H   0  0  0  0  0  0  0  0  0  0  0  0
   25.4196   -7.3143    4.3279 H   0  0  0  0  0  0  0  0  0  0  0  0
   25.8735   -2.9388    4.9442 H   0  0  0  0  0  0  0  0  0  0  0  0
   28.0239   -4.1539    3.1414 H   0  0  0  0  0  0  0  0  0  0  0  0
   26.5861   -5.1332    3.3313 H   0  0  0  0  0  0  0  0  0  0  0  0
   26.1912   -5.5652    1.2987 H   0  0  0  0  0  0  0  0  0  0  0  0
   26.4203   -3.9603    1.4006 H   0  0  0  0  0  0  0  0  0  0  0  0
   23.3388   -8.5380   -0.0465 H   0  0  0  0  0  0  0  0  0  0  0  0
   23.0130   -4.0311    1.7493 H   0  0  0  0  0  0  0  0  0  0  0  0
   24.4637   -3.7461   -0.0741 H   0  0  0  0  0  0  0  0  0  0  0  0
   22.7922   -5.4199   -0.2151 H   0  0  0  0  0  0  0  0  0  0  0  0
   24.7500   -7.4073    1.1201 H   0  0  0  0  0  0  0  0  0  0  0  0
   28.6408    1.2272    4.7741 H   0  0  0  0  0  0  0  0  0  0  0  0
   22.2345   -6.0900    2.3519 H   0  0  0  0  0  0  0  0  0  0  0  0
   26.8033   -0.7897    5.7293 H   0  0  0  0  0  0  0  0  0  0  0  0
   23.3296   -8.5508    2.8852 H   0  0  0  0  0  0  0  0  0  0  0  0
   24.3074   -7.5269    3.9954 H   0  0  0  0  0  0  0  0  0  0  0  0
   22.5002   -7.5258    4.1155 H   0  0  0  0  0  0  0  0  0  0  0  0
   27.4202   -2.1648    0.9201 H   0  0  0  0  0  0  0  0  0  0  0  0
   26.2906   -0.7229    3.3684 H   0  0  0  0  0  0  0  0  0  0  0  0
   28.1338   -0.0826    0.8526 H   0  0  0  0  0  0  0  0  0  0  0  0
   27.0271    1.7103    3.0352 H   0  0  0  0  0  0  0  0  0  0  0  0
   28.7886    2.1664    0.4243 H   0  0  0  0  0  0  0  0  0  0  0  0
   27.9897    3.8857    2.8065 H   0  0  0  0  0  0  0  0  0  0  0  0
   29.4612    4.6864    0.1245 H   0  0  0  0  0  0  0  0  0  0  0  0
   29.1330    5.9205    2.9153 H   0  0  0  0  0  0  0  0  0  0  0  0
   29.8688    7.2498    0.2508 H   0  0  0  0  0  0  0  0  0  0  0  0
   29.4760    8.0213    1.7966 H   0  0  0  0  0  0  0  0  0  0  0  0
   32.1204    7.2539    0.6654 H   0  0  0  0  0  0  0  0  0  0  0  0
   31.6149    9.5420    1.3530 H   0  0  0  0  0  0  0  0  0  0  0  0
   33.0531    8.8730    2.2149 H   0  0  0  0  0  0  0  0  0  0  0  0
   31.4683    9.0077    3.0742 H   0  0  0  0  0  0  0  0  0  0  0  0
   32.7402    4.4100    4.2228 H   0  0  0  0  0  0  0  0  0  0  0  0
   31.3002    2.7971    2.0573 H   0  0  0  0  0  0  0  0  0  0  0  0
   32.0762    2.2382    5.0618 H   0  0  0  0  0  0  0  0  0  0  0  0
   30.6181    0.6452    2.8871 H   0  0  0  0  0  0  0  0  0  0  0  0
   31.4560   -1.0987    4.5508 H   0  0  0  0  0  0  0  0  0  0  0  0
   31.5097    0.1450    5.8488 H   0  0  0  0  0  0  0  0  0  0  0  0
   29.0637   -0.8644    4.3260 H   0  0  0  0  0  0  0  0  0  0  0  0
   30.2053   -2.2288    6.3266 H   0  0  0  0  0  0  0  0  0  0  0  0
   29.5449   -0.9402    7.3948 H   0  0  0  0  0  0  0  0  0  0  0  0
   27.8892   -2.7503    8.4914 H   0  0  0  0  0  0  0  0  0  0  0  0
   28.8956   -3.8518    7.4867 H   0  0  0  0  0  0  0  0  0  0  0  0
  2  3  1  0
  4  2  1  0
  6  5  2  0
  4  6  1  0
  7  6  1  0
  8  4  1  0
  8 10  1  0
 12 10  1  0
 12  9  1  0
 14  9  1  0
 15 14  1  0
 16 14  1  0
 16 11  1  0
 18  1  1  0
 18 16  1  0
 20 13  1  0
 20 18  1  0
 22 20  1  0
 22 15  1  0
 22 24  1  0
 25  8  1  0
 26 12  1  0
 27 26  2  3
 28 27  1  0
 29 28  2  3
 30 29  1  0
 31 30  2  3
 32 31  1  0
 33 32  2  3
 34 33  1  0
 35 34  1  0
 35 17  1  0
 35 36  1  0
 37 19  2  0
 37 17  1  0
 38 37  1  0
 39 38  2  3
 40 39  1  0
 41 40  2  3
 42 41  1  0
 43 42  1  0
 43 21  1  0
 44 43  1  0
 45 23  1  1
 45 44  1  0
 45 25  1  0
 46  2  1  0
 46 45  1  0
  1 47  1  0
  1 48  1  0
  2 49  1  6
  3 50  1  0
  4 51  1  1
  7 52  1  0
  8 53  1  6
 10 54  1  0
 10 55  1  0
 11 56  1  0
 12 57  1  6
 13 58  1  0
 14 59  1  6
 16 60  1  6
 18 61  1  6
 20 62  1  1
 21 63  1  0
 22 64  1  6
 23 65  1  0
 24 66  1  0
 24 67  1  0
 24 68  1  0
 26 69  1  0
 27 70  1  0
 28 71  1  0
 29 72  1  0
 30 73  1  0
 31 74  1  0
 32 75  1  0
 33 76  1  0
 34 77  1  0
 34 78  1  0
 35 79  1  6
 36 80  1  0
 36 81  1  0
 36 82  1  0
 38 83  1  0
 39 84  1  0
 40 85  1  0
 41 86  1  0
 42 87  1  0
 42 88  1  0
 43 89  1  6
 44 90  1  0
 44 91  1  0
 46 92  1  0
 46 93  1  0
M  END
