
     RDKit          3D

 41 40  0  0  0  0  0  0  0  0999 V2000
  -41.6319   -4.4083    2.1898 C   0  0  0  0  0  0  0  0  0  0  0  0
  -40.6071   -7.4602    6.9822 C   0  0  0  0  0  0  0  0  0  0  0  0
  -41.7749   -6.6985    6.4436 C   0  0  0  0  0  0  0  0  0  0  0  0
  -40.6945   -3.2443    2.4851 C   0  0  0  0  0  0  0  0  0  0  0  0
  -42.8943   -4.0412    1.4243 C   0  0  0  0  0  0  0  0  0  0  0  0
  -41.6243   -5.5434    5.9662 O   0  0  0  0  0  0  0  0  0  0  0  0
  -43.0279   -7.2836    6.4598 O   0  0  0  0  0  0  0  0  0  0  0  0
  -38.9682   -7.5875    2.4393 P   0  0  2  0  0  0  0  0  0  0  0  0
  -41.0627   -5.8077    1.8367 C   0  0  0  0  0  0  0  0  0  0  0  0
  -39.0588   -5.8154    0.4191 N   0  0  0  0  0  0  0  0  0  0  0  0
  -39.5259   -5.9666    1.7971 C   0  0  2  0  0  0  0  0  0  0  0  0
  -39.2291   -7.7261    4.2385 C   0  0  0  0  0  0  0  0  0  0  0  0
  -40.4138   -8.6234    4.6807 C   0  0  1  0  0  0  0  0  0  0  0  0
  -40.4455   -9.9929    4.0374 C   0  0  0  0  0  0  0  0  0  0  0  0
  -40.4029   -8.7802    6.2219 C   0  0  0  0  0  0  0  0  0  0  0  0
  -37.4813   -7.6712    2.1852 O   0  0  0  0  0  0  0  0  0  0  0  0
  -39.7316   -8.8306    1.5991 O   0  0  0  0  0  0  0  0  0  0  0  0
  -41.4904  -10.6920    4.1168 O   0  0  0  0  0  0  0  0  0  0  0  0
  -39.3430  -10.4958    3.3682 O   0  0  0  0  0  0  0  0  0  0  0  0
  -42.0510   -4.5764    3.2105 H   0  0  0  0  0  0  0  0  0  0  0  0
  -39.6881   -6.8385    6.9734 H   0  0  0  0  0  0  0  0  0  0  0  0
  -40.8149   -7.6983    8.0472 H   0  0  0  0  0  0  0  0  0  0  0  0
  -41.0437   -2.3363    1.9501 H   0  0  0  0  0  0  0  0  0  0  0  0
  -40.6754   -3.0225    3.5738 H   0  0  0  0  0  0  0  0  0  0  0  0
  -39.6525   -3.4798    2.1796 H   0  0  0  0  0  0  0  0  0  0  0  0
  -42.6442   -3.6023    0.4342 H   0  0  0  0  0  0  0  0  0  0  0  0
  -43.4932   -3.2975    1.9933 H   0  0  0  0  0  0  0  0  0  0  0  0
  -43.5104   -4.9513    1.2656 H   0  0  0  0  0  0  0  0  0  0  0  0
  -43.1511   -8.2556    6.2028 H   0  0  0  0  0  0  0  0  0  0  0  0
  -41.4786   -6.1352    0.8578 H   0  0  0  0  0  0  0  0  0  0  0  0
  -41.4839   -6.5376    2.5647 H   0  0  0  0  0  0  0  0  0  0  0  0
  -38.0141   -5.7654    0.4159 H   0  0  0  0  0  0  0  0  0  0  0  0
  -39.3384   -6.6513   -0.1451 H   0  0  0  0  0  0  0  0  0  0  0  0
  -39.0252   -5.2104    2.4309 H   0  0  0  0  0  0  0  0  0  0  0  0
  -38.2851   -8.0953    4.6940 H   0  0  0  0  0  0  0  0  0  0  0  0
  -39.3935   -6.6932    4.6055 H   0  0  0  0  0  0  0  0  0  0  0  0
  -41.3517   -8.1103    4.3753 H   0  0  0  0  0  0  0  0  0  0  0  0
  -41.2050   -9.4877    6.5301 H   0  0  0  0  0  0  0  0  0  0  0  0
  -39.4378   -9.2308    6.5426 H   0  0  0  0  0  0  0  0  0  0  0  0
  -40.6946   -8.7308    1.8051 H   0  0  0  0  0  0  0  0  0  0  0  0
  -39.3681  -11.4123    2.9376 H   0  0  0  0  0  0  0  0  0  0  0  0
  3  2  1  0
  1  4  1  0
  5  1  1  0
  6  3  2  0
  7  3  1  0
  9  1  1  0
 11  8  1  0
 11  9  1  0
 11 10  1  0
 12  8  1  0
 13 12  1  0
 14 13  1  0
 15 13  1  0
 15  2  1  0
 16  8  2  0
  8 17  1  6
 18 14  2  0
 19 14  1  0
  1 20  1  0
  2 21  1  0
  2 22  1  0
  4 23  1  0
  4 24  1  0
  4 25  1  0
  5 26  1  0
  5 27  1  0
  5 28  1  0
  7 29  1  0
  9 30  1  0
  9 31  1  0
 10 32  1  0
 10 33  1  0
 11 34  1  1
 12 35  1  0
 12 36  1  0
 13 37  1  1
 15 38  1  0
 15 39  1  0
 17 40  1  0
 19 41  1  0
M  END
