
     RDKit          3D

 53 55  0  0  0  0  0  0  0  0999 V2000
   19.6129    2.3187   14.8286 C   0  0  0  0  0  0  0  0  0  0  0  0
   12.3462    2.2982   13.8330 C   0  0  0  0  0  0  0  0  0  0  0  0
   15.7445    3.5996    8.4543 C   0  0  0  0  0  0  0  0  0  0  0  0
   16.2421    3.2310    9.4834 C   0  0  0  0  0  0  0  0  0  0  0  0
   18.7246    2.1352   12.0414 C   0  0  0  0  0  0  0  0  0  0  0  0
   18.1757    2.5697   10.8341 C   0  0  0  0  0  0  0  0  0  0  0  0
   13.7815    0.6111   10.7234 C   0  0  0  0  0  0  0  0  0  0  0  0
   16.5080    2.1176   13.0291 C   0  0  0  0  0  0  0  0  0  0  0  0
   15.1375    4.0650    7.2100 C   0  0  0  0  0  0  0  0  0  0  0  0
   13.8954    3.2264    6.8945 C   0  0  0  0  0  0  0  0  0  0  0  0
   12.9592    3.9803    5.9500 C   0  0  0  0  0  0  0  0  0  0  0  0
   14.4591    2.7903   11.7720 C   0  0  0  0  0  0  0  0  0  0  0  0
   11.5084    3.7965    6.2776 C   0  0  0  0  0  0  0  0  0  0  0  0
   12.5846    1.2677   12.7394 C   0  0  0  0  0  0  0  0  0  0  0  0
   17.8933    1.9401   13.1485 C   0  0  0  0  0  0  0  0  0  0  0  0
   16.7923    2.7786   10.7265 C   0  0  0  0  0  0  0  0  0  0  0  0
    9.5806   -3.4355   11.9335 N   0  0  0  0  0  0  0  0  0  0  0  0
   10.4434    0.3187   14.7156 N   0  0  0  0  0  0  0  0  0  0  0  0
   13.0192   -0.4989   10.6152 N   0  0  0  0  0  0  0  0  0  0  0  0
   11.0227    2.6638    6.5459 O   0  0  0  0  0  0  0  0  0  0  0  0
   10.6835    4.9038    6.2207 O   0  0  0  0  0  0  0  0  0  0  0  0
   18.4524    1.6291   14.3809 O   0  0  0  0  0  0  0  0  0  0  0  0
   13.6111    1.5155   11.7834 C   0  0  0  0  0  0  0  0  0  0  0  0
   15.9462    2.5303   11.8232 C   0  0  0  0  0  0  0  0  0  0  0  0
   10.0550   -1.4755   13.2304 N   0  0  0  0  0  0  0  0  0  0  0  0
   10.3333   -2.2561   12.1652 C   0  0  0  0  0  0  0  0  0  0  0  0
   11.3339   -1.9228   11.3259 N   0  0  0  0  0  0  0  0  0  0  0  0
   12.0593   -0.7968   11.5149 C   0  0  0  0  0  0  0  0  0  0  0  0
   11.8101    0.0584   12.6246 C   0  0  0  0  0  0  0  0  0  0  0  0
   10.7643   -0.3548   13.5064 C   0  0  0  0  0  0  0  0  0  0  0  0
   19.3498    3.3385   15.1787 H   0  0  0  0  0  0  0  0  0  0  0  0
   20.3755    2.3697   14.0213 H   0  0  0  0  0  0  0  0  0  0  0  0
   20.0479    1.7671   15.6870 H   0  0  0  0  0  0  0  0  0  0  0  0
   11.2794    2.3806   14.0943 H   0  0  0  0  0  0  0  0  0  0  0  0
   12.4851    3.3388   13.4995 H   0  0  0  0  0  0  0  0  0  0  0  0
   12.9748    2.0846   14.7224 H   0  0  0  0  0  0  0  0  0  0  0  0
   19.7942    1.9944   12.1302 H   0  0  0  0  0  0  0  0  0  0  0  0
   18.8267    2.7474    9.9864 H   0  0  0  0  0  0  0  0  0  0  0  0
   14.5286    0.8006    9.9638 H   0  0  0  0  0  0  0  0  0  0  0  0
   15.8563    1.9439   13.8752 H   0  0  0  0  0  0  0  0  0  0  0  0
   14.8732    5.1355    7.3469 H   0  0  0  0  0  0  0  0  0  0  0  0
   15.8741    3.9825    6.3828 H   0  0  0  0  0  0  0  0  0  0  0  0
   14.2019    2.2581    6.4404 H   0  0  0  0  0  0  0  0  0  0  0  0
   13.3371    3.0113    7.8347 H   0  0  0  0  0  0  0  0  0  0  0  0
   13.1338    3.6364    4.9079 H   0  0  0  0  0  0  0  0  0  0  0  0
   13.1804    5.0691    5.9951 H   0  0  0  0  0  0  0  0  0  0  0  0
   14.2836    3.4799   12.6093 H   0  0  0  0  0  0  0  0  0  0  0  0
   14.1635    3.3814   10.8814 H   0  0  0  0  0  0  0  0  0  0  0  0
    8.8063   -3.7045   12.5804 H   0  0  0  0  0  0  0  0  0  0  0  0
    9.7928   -4.0466   11.1138 H   0  0  0  0  0  0  0  0  0  0  0  0
    9.4789    0.2353   15.1070 H   0  0  0  0  0  0  0  0  0  0  0  0
   11.2001    0.5531   15.3951 H   0  0  0  0  0  0  0  0  0  0  0  0
    9.6922    4.8244    6.4142 H   0  0  0  0  0  0  0  0  0  0  0  0
  4  3  3  0
  6  5  2  0
  9  3  1  0
 10  9  1  0
 11 10  1  0
 13 11  1  0
 14  2  1  0
 15  8  2  0
 15  5  1  0
 16  6  1  0
 16  4  1  0
 19  7  2  0
 20 13  2  0
 21 13  1  0
 22 15  1  0
 22  1  1  0
 23  7  1  0
 23 14  2  0
 23 12  1  0
 24 12  1  0
 24 16  2  0
 24  8  1  0
 26 25  2  0
 26 17  1  0
 27 26  1  0
 28 19  1  0
 28 27  2  0
 29 28  1  0
 29 14  1  0
 30 25  1  0
 30 18  1  0
 30 29  2  0
  1 31  1  0
  1 32  1  0
  1 33  1  0
  2 34  1  0
  2 35  1  0
  2 36  1  0
  5 37  1  0
  6 38  1  0
  7 39  1  0
  8 40  1  0
  9 41  1  0
  9 42  1  0
 10 43  1  0
 10 44  1  0
 11 45  1  0
 11 46  1  0
 12 47  1  0
 12 48  1  0
 17 49  1  0
 17 50  1  0
 18 51  1  0
 18 52  1  0
 21 53  1  0
M  END
