
     RDKit          3D

 49 51  0  0  0  0  0  0  0  0999 V2000
   17.5917   18.5659    8.1292 P   0  0  2  0  0  0  0  0  0  0  0  0
   18.4524   16.7513   10.0613 P   0  0  1  0  0  0  0  0  0  0  0  0
   20.6429   16.9445   11.9422 P   0  0  0  0  0  0  0  0  0  0  0  0
   18.9861   18.5380    6.0107 C   0  0  0  0  0  0  0  0  0  0  0  0
   17.6705   18.6932    6.4678 O   0  0  0  0  0  0  0  0  0  0  0  0
   19.0348   19.0922    4.5873 C   0  0  1  0  0  0  0  0  0  0  0  0
   18.1669   18.3331    3.7730 O   0  0  0  0  0  0  0  0  0  0  0  0
   18.5801   20.5598    4.5676 C   0  0  1  0  0  0  0  0  0  0  0  0
   19.2453   21.2480    3.5407 O   0  0  0  0  0  0  0  0  0  0  0  0
   17.1133   20.4185    4.2500 C   0  0  1  0  0  0  0  0  0  0  0  0
   16.5971   21.5478    3.6074 O   0  0  0  0  0  0  0  0  0  0  0  0
   17.1485   19.1980    3.3418 C   0  0  2  0  0  0  0  0  0  0  0  0
   13.5766   17.2177    0.2943 N   0  0  0  0  0  0  0  0  0  0  0  0
   16.1397   18.6564    8.4959 O   0  0  0  0  0  0  0  0  0  0  0  0
   18.1246   15.3008   10.2313 O   0  0  0  0  0  0  0  0  0  0  0  0
   22.1286   17.1294   11.9594 O   0  0  0  0  0  0  0  0  0  0  0  0
   14.7532   17.8454   -0.0296 C   0  0  0  0  0  0  0  0  0  0  0  0
   15.1202   18.0116   -1.3862 N   0  0  0  0  0  0  0  0  0  0  0  0
   18.4526   19.8067    8.8335 O   0  0  0  0  0  0  0  0  0  0  0  0
   17.5269   17.7002   11.0812 O   0  0  0  0  0  0  0  0  0  0  0  0
   19.9214   18.1615   12.8175 O   0  0  0  0  0  0  0  0  0  0  0  0
   15.5861   18.3012    0.9444 N   0  0  0  0  0  0  0  0  0  0  0  0
   20.1534   16.9883   10.2816 N   0  0  0  0  0  0  0  0  0  0  0  0
   18.2094   17.0411    8.4386 O   0  0  0  0  0  0  0  0  0  0  0  0
   20.2934   15.4933   12.6620 O   0  0  0  0  0  0  0  0  0  0  0  0
   15.2180   18.1154    2.2266 C   0  0  0  0  0  0  0  0  0  0  0  0
   14.0752   17.5029    2.5779 C   0  0  0  0  0  0  0  0  0  0  0  0
   13.2152   17.0387    1.5969 C   0  0  0  0  0  0  0  0  0  0  0  0
   12.1336   16.4714    1.8872 O   0  0  0  0  0  0  0  0  0  0  0  0
   13.9669   17.4492    3.9152 N   0  0  0  0  0  0  0  0  0  0  0  0
   15.1020   18.0629    4.3376 C   0  0  0  0  0  0  0  0  0  0  0  0
   15.8775   18.4941    3.3147 N   0  0  0  0  0  0  0  0  0  0  0  0
   19.2604   17.4602    5.9961 H   0  0  0  0  0  0  0  0  0  0  0  0
   19.7250   19.0973    6.6309 H   0  0  0  0  0  0  0  0  0  0  0  0
   20.0747   18.9960    4.2043 H   0  0  0  0  0  0  0  0  0  0  0  0
   18.7239   21.0851    5.5419 H   0  0  0  0  0  0  0  0  0  0  0  0
   20.1462   21.4744    3.8910 H   0  0  0  0  0  0  0  0  0  0  0  0
   16.5271   20.2471    5.1769 H   0  0  0  0  0  0  0  0  0  0  0  0
   16.7254   22.3104    4.2302 H   0  0  0  0  0  0  0  0  0  0  0  0
   17.4096   19.5359    2.3118 H   0  0  0  0  0  0  0  0  0  0  0  0
   12.9470   16.8723   -0.4654 H   0  0  0  0  0  0  0  0  0  0  0  0
   16.0173   18.4840   -1.6364 H   0  0  0  0  0  0  0  0  0  0  0  0
   14.5017   17.6661   -2.1533 H   0  0  0  0  0  0  0  0  0  0  0  0
   17.8828   20.1171    9.5819 H   0  0  0  0  0  0  0  0  0  0  0  0
   17.4585   17.1834   11.9233 H   0  0  0  0  0  0  0  0  0  0  0  0
   18.9747   18.1575   12.5265 H   0  0  0  0  0  0  0  0  0  0  0  0
   20.6404   16.2032    9.7935 H   0  0  0  0  0  0  0  0  0  0  0  0
   20.6610   15.5679   13.5787 H   0  0  0  0  0  0  0  0  0  0  0  0
   15.3465   18.1917    5.3824 H   0  0  0  0  0  0  0  0  0  0  0  0
  5  4  1  0
  1  5  1  6
  6  4  1  0
  7  6  1  0
  8  6  1  0
  8  9  1  0
 10  8  1  0
 10 11  1  0
 12 10  1  0
 12  7  1  0
 14  1  2  0
 15  2  2  0
 16  3  2  0
 17 13  1  0
 18 17  1  0
 19  1  1  0
  2 20  1  1
 21  3  1  0
 22 17  2  0
 23  2  1  0
 23  3  1  0
 24  2  1  0
 24  1  1  0
 25  3  1  0
 26 22  1  0
 27 26  2  0
 28 27  1  0
 28 13  1  0
 29 28  2  0
 30 27  1  0
 31 30  2  0
 32 31  1  0
 32 26  1  0
 12 32  1  0
  4 33  1  0
  4 34  1  0
  6 35  1  6
  8 36  1  1
  9 37  1  0
 10 38  1  1
 11 39  1  0
 12 40  1  6
 13 41  1  0
 18 42  1  0
 18 43  1  0
 19 44  1  0
 20 45  1  0
 21 46  1  0
 23 47  1  0
 25 48  1  0
 31 49  1  0
M  END
