
     RDKit          3D

 33 34  0  0  0  0  0  0  0  0999 V2000
   -3.6744    2.0028   24.7686 P   0  0  0  0  0  0  0  0  0  0  0  0
   -2.5759    2.3168   23.7769 O   0  0  0  0  0  0  0  0  0  0  0  0
   -3.1671    2.3828   26.3190 O   0  0  0  0  0  0  0  0  0  0  0  0
   -5.0624    2.8843   24.4189 O   0  0  0  0  0  0  0  0  0  0  0  0
   -3.9733   -0.2703   23.6072 C   0  0  0  0  0  0  0  0  0  0  0  0
   -4.0604    0.3610   24.8491 O   0  0  0  0  0  0  0  0  0  0  0  0
   -2.5823   -0.9211   23.5700 C   0  0  1  0  0  0  0  0  0  0  0  0
   -2.4077   -1.6118   22.3557 O   0  0  0  0  0  0  0  0  0  0  0  0
   -1.4421    0.0994   23.7299 C   0  0  1  0  0  0  0  0  0  0  0  0
   -0.3890   -0.4485   24.4941 O   0  0  0  0  0  0  0  0  0  0  0  0
   -1.0256    0.3514   22.2967 C   0  0  1  0  0  0  0  0  0  0  0  0
    0.3294    0.7288   22.1816 O   0  0  0  0  0  0  0  0  0  0  0  0
   -1.3547   -1.0010   21.6438 C   0  0  2  0  0  0  0  0  0  0  0  0
   -1.7079   -0.9298   20.2168 N   0  0  0  0  0  0  0  0  0  0  0  0
   -2.8385   -0.2953   19.7579 C   0  0  0  0  0  0  0  0  0  0  0  0
   -3.5895    0.3478   20.5366 O   0  0  0  0  0  0  0  0  0  0  0  0
   -3.1618   -0.3718   18.4400 N   0  0  0  0  0  0  0  0  0  0  0  0
   -2.4016   -1.0916   17.5758 C   0  0  0  0  0  0  0  0  0  0  0  0
   -2.7267   -1.1634   16.3620 O   0  0  0  0  0  0  0  0  0  0  0  0
   -1.2675   -1.7477   18.0487 C   0  0  0  0  0  0  0  0  0  0  0  0
   -0.9601   -1.6449   19.3653 N   0  0  0  0  0  0  0  0  0  0  0  0
   -2.4863    3.0920   26.1980 H   0  0  0  0  0  0  0  0  0  0  0  0
   -5.5486    2.9440   25.2797 H   0  0  0  0  0  0  0  0  0  0  0  0
   -4.7593   -1.0525   23.5146 H   0  0  0  0  0  0  0  0  0  0  0  0
   -4.0637    0.4718   22.7892 H   0  0  0  0  0  0  0  0  0  0  0  0
   -2.5380   -1.6659   24.3967 H   0  0  0  0  0  0  0  0  0  0  0  0
   -1.7757    1.0446   24.2118 H   0  0  0  0  0  0  0  0  0  0  0  0
   -0.7693   -1.0734   25.1659 H   0  0  0  0  0  0  0  0  0  0  0  0
   -1.6509    1.1663   21.8780 H   0  0  0  0  0  0  0  0  0  0  0  0
    0.6369    1.1084   23.0446 H   0  0  0  0  0  0  0  0  0  0  0  0
   -0.4729   -1.6729   21.7554 H   0  0  0  0  0  0  0  0  0  0  0  0
   -4.0179    0.1161   18.0893 H   0  0  0  0  0  0  0  0  0  0  0  0
   -0.6411   -2.3321   17.3871 H   0  0  0  0  0  0  0  0  0  0  0  0
  2  1  2  0
  3  1  1  0
  4  1  1  0
  6  5  1  0
  6  1  1  0
  7  5  1  0
  8  7  1  0
  9  7  1  0
  9 10  1  0
 11  9  1  0
 11 12  1  0
 13 11  1  0
 13  8  1  0
 13 14  1  0
 15 14  1  0
 16 15  2  0
 17 15  1  0
 18 17  1  0
 19 18  2  0
 20 18  1  0
 21 20  2  0
 21 14  1  0
  3 22  1  0
  4 23  1  0
  5 24  1  0
  5 25  1  0
  7 26  1  1
  9 27  1  1
 10 28  1  0
 11 29  1  6
 12 30  1  0
 13 31  1  6
 17 32  1  0
 20 33  1  0
M  END
