
     RDKit          3D

 32 33  0  0  0  0  0  0  0  0999 V2000
  -34.9926  -83.4946  -81.2637 C   0  0  0  0  0  0  0  0  0  0  0  0
  -35.8222  -82.3176  -81.7819 C   0  0  0  0  0  0  0  0  0  0  0  0
  -34.9883  -81.0302  -81.7850 C   0  0  0  0  0  0  0  0  0  0  0  0
  -36.2909  -82.6121  -83.1336 N   0  0  0  0  0  0  0  0  0  0  0  0
  -37.3208  -81.8631  -83.7689 C   0  0  0  0  0  0  0  0  0  0  0  0
  -38.0882  -82.3932  -84.7346 N   0  0  0  0  0  0  0  0  0  0  0  0
  -38.9870  -81.4987  -85.2042 C   0  0  0  0  0  0  0  0  0  0  0  0
  -38.9367  -80.2275  -84.6149 C   0  0  0  0  0  0  0  0  0  0  0  0
  -37.7189  -80.2593  -83.4404 S   0  0  0  0  0  0  0  0  0  0  0  0
  -39.8922  -81.8794  -86.2308 N   0  0  0  0  0  0  0  0  0  0  0  0
  -39.7867  -79.0543  -84.9538 C   0  0  0  0  0  0  0  0  0  0  0  0
  -40.8673  -78.5709  -84.0559 C   0  0  0  0  0  0  0  0  0  0  0  0
  -41.2187  -77.2078  -84.0070 C   0  0  0  0  0  0  0  0  0  0  0  0
  -42.2617  -76.7738  -83.1797 C   0  0  0  0  0  0  0  0  0  0  0  0
  -42.9609  -77.7101  -82.4134 C   0  0  0  0  0  0  0  0  0  0  0  0
  -42.6277  -79.0295  -82.4810 N   0  0  0  0  0  0  0  0  0  0  0  0
  -41.6145  -79.4789  -83.2783 C   0  0  0  0  0  0  0  0  0  0  0  0
  -39.5900  -78.4351  -86.0370 O   0  0  0  0  0  0  0  0  0  0  0  0
  -35.6283  -84.4028  -81.1922 H   0  0  0  0  0  0  0  0  0  0  0  0
  -34.5957  -83.2664  -80.2515 H   0  0  0  0  0  0  0  0  0  0  0  0
  -34.1399  -83.7057  -81.9446 H   0  0  0  0  0  0  0  0  0  0  0  0
  -36.6933  -82.1904  -81.1023 H   0  0  0  0  0  0  0  0  0  0  0  0
  -34.7490  -80.7227  -80.7457 H   0  0  0  0  0  0  0  0  0  0  0  0
  -35.5468  -80.2070  -82.2800 H   0  0  0  0  0  0  0  0  0  0  0  0
  -34.0319  -81.1947  -82.3255 H   0  0  0  0  0  0  0  0  0  0  0  0
  -35.8045  -83.3443  -83.7005 H   0  0  0  0  0  0  0  0  0  0  0  0
  -39.8927  -82.8127  -86.6886 H   0  0  0  0  0  0  0  0  0  0  0  0
  -40.4975  -81.1489  -86.6669 H   0  0  0  0  0  0  0  0  0  0  0  0
  -40.7080  -76.4834  -84.6280 H   0  0  0  0  0  0  0  0  0  0  0  0
  -42.5309  -75.7262  -83.1425 H   0  0  0  0  0  0  0  0  0  0  0  0
  -43.7710  -77.3911  -81.7713 H   0  0  0  0  0  0  0  0  0  0  0  0
  -41.3871  -80.5370  -83.3010 H   0  0  0  0  0  0  0  0  0  0  0  0
  2  1  1  0
  3  2  1  0
  4  2  1  0
  5  4  1  0
  6  5  2  0
  7  6  1  0
  8  7  2  0
  9  5  1  0
  9  8  1  0
 10  7  1  0
 11  8  1  0
 12 11  1  0
 13 12  2  0
 14 13  1  0
 15 14  2  0
 16 15  1  0
 17 16  2  0
 17 12  1  0
 18 11  2  0
  1 19  1  0
  1 20  1  0
  1 21  1  0
  2 22  1  0
  3 23  1  0
  3 24  1  0
  3 25  1  0
  4 26  1  0
 10 27  1  0
 10 28  1  0
 13 29  1  0
 14 30  1  0
 15 31  1  0
 17 32  1  0
M  END
