
     RDKit          3D

 19 19  0  0  0  0  0  0  0  0999 V2000
   43.0334   59.4178   37.6729 C   0  0  0  0  0  0  0  0  0  0  0  0
   44.1915   58.6189   40.1083 N   0  0  0  0  0  0  0  0  0  0  0  0
   45.1068   57.8224   37.7759 O   0  0  0  0  0  0  0  0  0  0  0  0
   44.5070   59.0056   38.4704 S   0  0  0  0  0  0  0  0  0  0  0  0
   41.2500   60.3291   36.4187 C   0  0  0  0  0  0  0  0  0  0  0  0
   40.9249   59.1669   37.0162 N   0  0  0  0  0  0  0  0  0  0  0  0
   45.4226   60.1903   38.4142 O   0  0  0  0  0  0  0  0  0  0  0  0
   42.8377   60.7962   36.7414 S   0  0  0  0  0  0  0  0  0  0  0  0
   39.7005   60.5467   34.4487 C   0  0  0  0  0  0  0  0  0  0  0  0
   41.9277   58.6530   37.7183 N   0  0  0  0  0  0  0  0  0  0  0  0
   39.9935   59.4088   33.9941 O   0  0  0  0  0  0  0  0  0  0  0  0
   38.6749   61.3821   33.7693 C   0  0  0  0  0  0  0  0  0  0  0  0
   40.3177   61.0545   35.6297 N   0  0  0  0  0  0  0  0  0  0  0  0
   44.0055   57.5918   40.1506 H   0  0  0  0  0  0  0  0  0  0  0  0
   45.0761   58.7870   40.6381 H   0  0  0  0  0  0  0  0  0  0  0  0
   39.1363   62.3279   33.4156 H   0  0  0  0  0  0  0  0  0  0  0  0
   37.8568   61.6175   34.4815 H   0  0  0  0  0  0  0  0  0  0  0  0
   38.2493   60.8438   32.8958 H   0  0  0  0  0  0  0  0  0  0  0  0
   40.1056   62.0374   35.9152 H   0  0  0  0  0  0  0  0  0  0  0  0
  4  1  1  0
  4  3  2  0
  4  2  1  0
  6  5  2  0
  7  4  2  0
  8  5  1  0
  8  1  1  0
 10  6  1  0
 10  1  2  0
 11  9  2  0
 12  9  1  0
 13  5  1  0
 13  9  1  0
  2 14  1  0
  2 15  1  0
 12 16  1  0
 12 17  1  0
 12 18  1  0
 13 19  1  0
M  END
