
     RDKit          3D

 54 56  0  0  0  0  0  0  0  0999 V2000
    8.2158   17.2928  -11.6146 C   0  0  2  0  0  0  0  0  0  0  0  0
    9.6367   16.8180  -11.9281 C   0  0  0  0  0  0  0  0  0  0  0  0
   10.1579   15.9188  -10.8114 C   0  0  0  0  0  0  0  0  0  0  0  0
    9.1945   14.7440  -10.5678 C   0  0  2  0  0  0  0  0  0  0  0  0
    7.7816   15.2590  -10.2401 C   0  0  0  0  0  0  0  0  0  0  0  0
    7.2576   16.1255  -11.3831 C   0  0  0  0  0  0  0  0  0  0  0  0
    9.7124   13.8527   -9.4411 C   0  0  0  0  0  0  0  0  0  0  0  0
    7.7457   18.1550  -12.7432 C   0  0  0  0  0  0  0  0  0  0  0  0
    7.8867   21.0877   -9.0582 S   0  0  0  0  0  0  0  0  0  0  0  0
    7.1186   20.4263  -10.3764 C   0  0  0  0  0  0  0  0  0  0  0  0
    8.0692   20.1614  -11.3561 C   0  0  0  0  0  0  0  0  0  0  0  0
    9.3834   20.4668  -10.9817 C   0  0  0  0  0  0  0  0  0  0  0  0
    9.4363   21.0254   -9.7043 C   0  0  0  0  0  0  0  0  0  0  0  0
    7.7328   19.5750  -12.6109 N   0  0  0  0  0  0  0  0  0  0  0  0
    5.6761   20.1974  -10.4100 C   0  0  0  0  0  0  0  0  0  0  0  0
   10.6141   21.4827   -8.9557 C   0  0  0  0  0  0  0  0  0  0  0  0
   11.8999   21.0299   -9.2813 C   0  0  0  0  0  0  0  0  0  0  0  0
   12.9979   21.4370   -8.5201 C   0  0  0  0  0  0  0  0  0  0  0  0
   12.8201   22.2890   -7.4273 C   0  0  0  0  0  0  0  0  0  0  0  0
   11.5439   22.7399   -7.0935 C   0  0  0  0  0  0  0  0  0  0  0  0
   10.4457   22.3412   -7.8513 C   0  0  0  0  0  0  0  0  0  0  0  0
    7.5251   20.4211  -13.7881 C   0  0  0  0  0  0  0  0  0  0  0  0
    6.7215   21.6846  -13.4531 C   0  0  0  0  0  0  0  0  0  0  0  0
    8.8791   20.7707  -14.3971 C   0  0  0  0  0  0  0  0  0  0  0  0
    5.1215   19.6193  -11.3791 O   0  0  0  0  0  0  0  0  0  0  0  0
    4.9163   20.6237   -9.3372 O   0  0  0  0  0  0  0  0  0  0  0  0
    7.4315   17.6223  -13.8405 O   0  0  0  0  0  0  0  0  0  0  0  0
    8.2487   17.8496  -10.6565 H   0  0  0  0  0  0  0  0  0  0  0  0
   10.3154   17.6931  -12.0300 H   0  0  0  0  0  0  0  0  0  0  0  0
    9.6539   16.2552  -12.8886 H   0  0  0  0  0  0  0  0  0  0  0  0
   11.1589   15.5306  -11.1007 H   0  0  0  0  0  0  0  0  0  0  0  0
   10.2773   16.5170   -9.8803 H   0  0  0  0  0  0  0  0  0  0  0  0
    9.1454   14.1241  -11.4918 H   0  0  0  0  0  0  0  0  0  0  0  0
    7.7913   15.8451   -9.2938 H   0  0  0  0  0  0  0  0  0  0  0  0
    7.0922   14.3976  -10.1019 H   0  0  0  0  0  0  0  0  0  0  0  0
    7.1591   15.5059  -12.3025 H   0  0  0  0  0  0  0  0  0  0  0  0
    6.2505   16.5134  -11.1137 H   0  0  0  0  0  0  0  0  0  0  0  0
   10.4472   13.1207   -9.8392 H   0  0  0  0  0  0  0  0  0  0  0  0
   10.2045   14.4617   -8.6523 H   0  0  0  0  0  0  0  0  0  0  0  0
    8.8731   13.2857   -8.9848 H   0  0  0  0  0  0  0  0  0  0  0  0
   10.2428   20.3043  -11.6175 H   0  0  0  0  0  0  0  0  0  0  0  0
   12.0596   20.3515  -10.1090 H   0  0  0  0  0  0  0  0  0  0  0  0
   13.9897   21.0848   -8.7728 H   0  0  0  0  0  0  0  0  0  0  0  0
   13.6741   22.5990   -6.8390 H   0  0  0  0  0  0  0  0  0  0  0  0
   11.4077   23.4015   -6.2476 H   0  0  0  0  0  0  0  0  0  0  0  0
    9.4711   22.7181   -7.5709 H   0  0  0  0  0  0  0  0  0  0  0  0
    6.9350   19.8732  -14.5557 H   0  0  0  0  0  0  0  0  0  0  0  0
    5.6984   21.4015  -13.1258 H   0  0  0  0  0  0  0  0  0  0  0  0
    7.1955   22.2380  -12.6190 H   0  0  0  0  0  0  0  0  0  0  0  0
    6.6265   22.3523  -14.3358 H   0  0  0  0  0  0  0  0  0  0  0  0
    9.3750   19.8655  -14.8063 H   0  0  0  0  0  0  0  0  0  0  0  0
    9.5403   21.2152  -13.6231 H   0  0  0  0  0  0  0  0  0  0  0  0
    8.7515   21.5128  -15.2138 H   0  0  0  0  0  0  0  0  0  0  0  0
    3.9353   20.8492   -9.4513 H   0  0  0  0  0  0  0  0  0  0  0  0
  2  1  1  0
  3  2  1  0
  4  3  1  0
  5  4  1  0
  6  5  1  0
  6  1  1  0
  4  7  1  0
  1  8  1  0
 10  9  1  0
 11 10  2  0
 12 11  1  0
 13 12  2  0
 13  9  1  0
 14  8  1  0
 14 11  1  0
 15 10  1  0
 16 13  1  0
 17 16  2  0
 18 17  1  0
 19 18  2  0
 20 19  1  0
 21 16  1  0
 21 20  2  0
 22 14  1  0
 22 23  1  0
 24 22  1  0
 25 15  2  0
 26 15  1  0
 27  8  2  0
  1 28  1  1
  2 29  1  0
  2 30  1  0
  3 31  1  0
  3 32  1  0
  4 33  1  6
  5 34  1  0
  5 35  1  0
  6 36  1  0
  6 37  1  0
  7 38  1  0
  7 39  1  0
  7 40  1  0
 12 41  1  0
 17 42  1  0
 18 43  1  0
 19 44  1  0
 20 45  1  0
 21 46  1  0
 22 47  1  0
 23 48  1  0
 23 49  1  0
 23 50  1  0
 24 51  1  0
 24 52  1  0
 24 53  1  0
 26 54  1  0
M  END
