
     RDKit          3D

 34 36  0  0  0  0  0  0  0  0999 V2000
   71.7517   69.8723  107.0602 C   0  0  0  0  0  0  0  0  0  0  0  0
   70.7817   69.2522  106.2628 O   0  0  0  0  0  0  0  0  0  0  0  0
   72.6589   70.7878  106.2371 C   0  0  1  0  0  0  0  0  0  0  0  0
   73.5817   70.0380  105.4759 O   0  0  0  0  0  0  0  0  0  0  0  0
   71.9172   71.7119  105.2718 C   0  0  1  0  0  0  0  0  0  0  0  0
   71.3222   72.8088  105.9230 O   0  0  0  0  0  0  0  0  0  0  0  0
   73.0817   72.1235  104.3915 C   0  0  1  0  0  0  0  0  0  0  0  0
   73.7249   73.2781  104.8820 O   0  0  0  0  0  0  0  0  0  0  0  0
   74.0227   70.8949  104.4405 C   0  0  2  0  0  0  0  0  0  0  0  0
   76.6039   67.6504  101.2573 N   0  0  0  0  0  0  0  0  0  0  0  0
   76.9000   68.0402  102.6123 C   0  0  0  0  0  0  0  0  0  0  0  0
   76.1116   68.8435  103.2735 N   0  0  0  0  0  0  0  0  0  0  0  0
   74.9298   69.3426  102.6464 C   0  0  0  0  0  0  0  0  0  0  0  0
   74.5833   69.0088  101.3807 C   0  0  0  0  0  0  0  0  0  0  0  0
   75.4045   68.0913  100.5298 C   0  0  2  0  0  0  0  0  0  0  0  0
   74.6453   66.9620  100.1609 O   0  0  0  0  0  0  0  0  0  0  0  0
   73.4304   69.6228  101.0627 N   0  0  0  0  0  4  0  0  0  0  0  0
   73.0887   70.3185  102.1678 C   0  0  0  0  0  0  0  0  0  0  0  0
   74.0052   70.1837  103.1594 N   0  0  0  0  0  0  0  0  0  0  0  0
   72.3638   69.1076  107.5904 H   0  0  0  0  0  0  0  0  0  0  0  0
   71.2333   70.4781  107.8337 H   0  0  0  0  0  0  0  0  0  0  0  0
   71.2469   68.5376  105.7543 H   0  0  0  0  0  0  0  0  0  0  0  0
   73.2293   71.3949  106.9780 H   0  0  0  0  0  0  0  0  0  0  0  0
   71.1602   71.1451  104.6834 H   0  0  0  0  0  0  0  0  0  0  0  0
   71.1918   72.5333  106.8676 H   0  0  0  0  0  0  0  0  0  0  0  0
   72.7218   72.3521  103.3655 H   0  0  0  0  0  0  0  0  0  0  0  0
   73.3796   73.4839  105.7887 H   0  0  0  0  0  0  0  0  0  0  0  0
   75.0651   71.2154  104.6631 H   0  0  0  0  0  0  0  0  0  0  0  0
   77.2769   67.0197  100.7672 H   0  0  0  0  0  0  0  0  0  0  0  0
   77.7955   67.6659  103.0901 H   0  0  0  0  0  0  0  0  0  0  0  0
   75.7311   68.6462   99.6211 H   0  0  0  0  0  0  0  0  0  0  0  0
   75.2816   66.3001   99.7828 H   0  0  0  0  0  0  0  0  0  0  0  0
   72.9054   69.5659  100.1622 H   0  0  0  0  0  0  0  0  0  0  0  0
   72.1976   70.9276  102.2327 H   0  0  0  0  0  0  0  0  0  0  0  0
  2  1  1  0
  3  1  1  0
  4  3  1  0
  5  3  1  0
  5  6  1  0
  7  5  1  0
  7  8  1  0
  9  4  1  0
  9  7  1  0
 11 10  1  0
 12 11  2  0
 13 12  1  0
 14 13  2  0
 15 14  1  0
 15 10  1  0
 15 16  1  0
 17 14  1  0
 18 17  2  0
 19 18  1  0
 19 13  1  0
  9 19  1  0
  1 20  1  0
  1 21  1  0
  2 22  1  0
  3 23  1  1
  5 24  1  6
  6 25  1  0
  7 26  1  6
  8 27  1  0
  9 28  1  1
 10 29  1  0
 11 30  1  0
 15 31  1  6
 16 32  1  0
 17 33  1  0
 18 34  1  0
M  CHG  1  17   1
M  END
