
     RDKit          3D

 86 90  0  0  0  0  0  0  0  0999 V2000
   13.6476   21.2318   17.8460 N   0  0  0  0  0  0  0  0  0  0  0  0
   14.5900   22.2487   17.4036 C   0  0  1  0  0  0  0  0  0  0  0  0
   13.8251   24.2081   18.6468 O   0  0  0  0  0  0  0  0  0  0  0  0
   14.0950   22.9202   16.1148 C   0  0  0  0  0  0  0  0  0  0  0  0
   16.4359   24.7545   17.6830 O   0  0  0  0  0  0  0  0  0  0  0  0
   13.7288   21.8797   15.0943 C   0  0  0  0  0  0  0  0  0  0  0  0
   14.6015   20.8158   14.8176 C   0  0  0  0  0  0  0  0  0  0  0  0
   14.2328   19.8318   13.8966 C   0  0  0  0  0  0  0  0  0  0  0  0
   12.9893   19.8967   13.2601 C   0  0  0  0  0  0  0  0  0  0  0  0
   12.1088   20.9422   13.5476 C   0  0  0  0  0  0  0  0  0  0  0  0
   12.4729   21.9280   14.4658 C   0  0  0  0  0  0  0  0  0  0  0  0
   14.8242   23.2224   18.5632 C   0  0  2  0  0  0  0  0  0  0  0  0
   16.2056   23.7920   18.4642 C   0  0  0  0  0  0  0  0  0  0  0  0
   19.9919   24.8566   17.4690 N   0  0  0  0  0  0  0  0  0  0  0  0
   21.8925   26.7099   17.5807 O   0  0  0  0  0  0  0  0  0  0  0  0
   20.9599   24.7966   16.3900 C   0  0  1  0  0  0  0  0  0  0  0  0
   20.4183   25.4285   15.1668 C   0  0  0  0  0  0  0  0  0  0  0  0
   19.1385   25.2837   14.6230 C   0  0  0  0  0  0  0  0  0  0  0  0
   18.8246   26.0046   13.4624 C   0  0  0  0  0  0  0  0  0  0  0  0
   22.2088   25.6572   16.6986 C   0  0  1  0  0  0  0  0  0  0  0  0
   21.3563   26.2538   14.5842 C   0  0  0  0  0  0  0  0  0  0  0  0
   21.0640   26.9739   13.4254 C   0  0  0  0  0  0  0  0  0  0  0  0
   19.7837   26.8457   12.8656 C   0  0  0  0  0  0  0  0  0  0  0  0
   22.6256   26.2679   15.3519 C   0  0  0  0  0  0  0  0  0  0  0  0
    9.3830   15.9940   16.5222 C   0  0  0  0  0  0  0  0  0  0  0  0
   15.2529   19.7579   18.6743 O   0  0  0  0  0  0  0  0  0  0  0  0
    9.9094   16.9108   15.6115 C   0  0  0  0  0  0  0  0  0  0  0  0
   11.8871   19.0632   17.8777 O   0  0  0  0  0  0  0  0  0  0  0  0
   10.7096   17.9714   16.0552 C   0  0  0  0  0  0  0  0  0  0  0  0
   11.2984   18.9228   15.0441 C   0  0  0  0  0  0  0  0  0  0  0  0
   10.7415   17.2403   19.8409 C   0  0  0  0  0  0  0  0  0  0  0  0
   10.9998   18.0849   17.4390 C   0  0  0  0  0  0  0  0  0  0  0  0
   10.4464   17.1624   18.3645 C   0  0  0  0  0  0  0  0  0  0  0  0
    9.6497   16.1144   17.8865 C   0  0  0  0  0  0  0  0  0  0  0  0
   14.0984   19.9293   18.2076 C   0  0  0  0  0  0  0  0  0  0  0  0
   13.2679   18.7379   17.9312 C   0  0  0  0  0  0  0  0  0  0  0  0
   17.1711   21.8986   19.8640 C   0  0  0  0  0  0  0  0  0  0  0  0
   17.2861   23.1708   19.1649 N   0  0  0  0  0  0  0  0  0  0  0  0
   19.1783   22.6906   17.1802 O   0  0  0  0  0  0  0  0  0  0  0  0
   18.8120   21.4254   20.4408 S   0  0  0  0  0  0  0  0  0  0  0  0
   19.3740   23.1484   20.3667 C   0  0  0  0  0  0  0  0  0  0  0  0
   19.0136   23.8461   21.6906 C   0  0  0  0  0  0  0  0  0  0  0  0
   20.9026   23.1698   20.1753 C   0  0  0  0  0  0  0  0  0  0  0  0
   18.5813   23.8108   19.2274 C   0  0  1  0  0  0  0  0  0  0  0  0
   19.2531   23.7266   17.8951 C   0  0  0  0  0  0  0  0  0  0  0  0
   12.6426   21.4942   17.9633 H   0  0  0  0  0  0  0  0  0  0  0  0
   15.5590   21.7678   17.1371 H   0  0  0  0  0  0  0  0  0  0  0  0
   14.0104   24.9173   17.9782 H   0  0  0  0  0  0  0  0  0  0  0  0
   13.2050   23.5543   16.3155 H   0  0  0  0  0  0  0  0  0  0  0  0
   14.8886   23.5817   15.7040 H   0  0  0  0  0  0  0  0  0  0  0  0
   15.5633   20.7519   15.3114 H   0  0  0  0  0  0  0  0  0  0  0  0
   14.9091   19.0154   13.6787 H   0  0  0  0  0  0  0  0  0  0  0  0
   12.7055   19.1314   12.5494 H   0  0  0  0  0  0  0  0  0  0  0  0
   11.1417   20.9843   13.0632 H   0  0  0  0  0  0  0  0  0  0  0  0
   11.7749   22.7260   14.6872 H   0  0  0  0  0  0  0  0  0  0  0  0
   14.7479   22.6562   19.5124 H   0  0  0  0  0  0  0  0  0  0  0  0
   19.7050   25.7901   17.8420 H   0  0  0  0  0  0  0  0  0  0  0  0
   22.0557   26.3720   18.5000 H   0  0  0  0  0  0  0  0  0  0  0  0
   21.2661   23.7496   16.1699 H   0  0  0  0  0  0  0  0  0  0  0  0
   18.4038   24.6375   15.0857 H   0  0  0  0  0  0  0  0  0  0  0  0
   17.8400   25.9133   13.0225 H   0  0  0  0  0  0  0  0  0  0  0  0
   23.0353   25.0295   17.1079 H   0  0  0  0  0  0  0  0  0  0  0  0
   21.8028   27.6229   12.9732 H   0  0  0  0  0  0  0  0  0  0  0  0
   19.5315   27.3976   11.9695 H   0  0  0  0  0  0  0  0  0  0  0  0
   23.3742   25.6226   14.8434 H   0  0  0  0  0  0  0  0  0  0  0  0
   23.0218   27.3009   15.4635 H   0  0  0  0  0  0  0  0  0  0  0  0
    8.7667   15.1784   16.1663 H   0  0  0  0  0  0  0  0  0  0  0  0
    9.6938   16.7893   14.5570 H   0  0  0  0  0  0  0  0  0  0  0  0
   12.3061   18.5680   14.7431 H   0  0  0  0  0  0  0  0  0  0  0  0
   10.6556   18.9905   14.1407 H   0  0  0  0  0  0  0  0  0  0  0  0
   11.3865   19.9429   15.4736 H   0  0  0  0  0  0  0  0  0  0  0  0
   10.7600   18.2967   20.1823 H   0  0  0  0  0  0  0  0  0  0  0  0
   11.7277   16.7744   20.0459 H   0  0  0  0  0  0  0  0  0  0  0  0
    9.9620   16.7087   20.4273 H   0  0  0  0  0  0  0  0  0  0  0  0
    9.2346   15.3845   18.5708 H   0  0  0  0  0  0  0  0  0  0  0  0
   13.4375   17.9771   18.7237 H   0  0  0  0  0  0  0  0  0  0  0  0
   13.5948   18.3111   16.9582 H   0  0  0  0  0  0  0  0  0  0  0  0
   16.4979   21.9925   20.7413 H   0  0  0  0  0  0  0  0  0  0  0  0
   16.8208   21.1185   19.1739 H   0  0  0  0  0  0  0  0  0  0  0  0
   19.8238   23.7076   22.4390 H   0  0  0  0  0  0  0  0  0  0  0  0
   18.8565   24.9362   21.5423 H   0  0  0  0  0  0  0  0  0  0  0  0
   18.0779   23.4186   22.1108 H   0  0  0  0  0  0  0  0  0  0  0  0
   21.3217   22.1473   20.2912 H   0  0  0  0  0  0  0  0  0  0  0  0
   21.3776   23.8320   20.9308 H   0  0  0  0  0  0  0  0  0  0  0  0
   21.1753   23.5302   19.1605 H   0  0  0  0  0  0  0  0  0  0  0  0
   18.4272   24.8871   19.4721 H   0  0  0  0  0  0  0  0  0  0  0  0
  2  1  1  0
  2  4  1  0
  6  4  1  0
  7  6  2  0
  8  7  1  0
  9  8  2  0
 10  9  1  0
 11 10  2  0
 11  6  1  0
 12  3  1  0
 12  2  1  0
 13 12  1  0
 13  5  2  0
 16 14  1  0
 17 16  1  0
 18 17  2  0
 19 18  1  0
 20 16  1  0
 20 15  1  0
 21 17  1  0
 22 21  2  0
 23 19  2  0
 23 22  1  0
 24 21  1  0
 24 20  1  0
 27 25  2  0
 29 27  1  0
 30 29  1  0
 32 29  2  0
 32 28  1  0
 33 32  1  0
 33 31  1  0
 34 25  1  0
 34 33  2  0
 35 26  2  0
 35  1  1  0
 36 35  1  0
 36 28  1  0
 38 37  1  0
 38 13  1  0
 40 37  1  0
 41 40  1  0
 41 42  1  0
 43 41  1  0
 44 41  1  0
 44 38  1  0
 44 45  1  0
 45 39  2  0
 45 14  1  0
  1 46  1  0
  2 47  1  6
  3 48  1  0
  4 49  1  0
  4 50  1  0
  7 51  1  0
  8 52  1  0
  9 53  1  0
 10 54  1  0
 11 55  1  0
 12 56  1  1
 14 57  1  0
 15 58  1  0
 16 59  1  6
 18 60  1  0
 19 61  1  0
 20 62  1  1
 22 63  1  0
 23 64  1  0
 24 65  1  0
 24 66  1  0
 25 67  1  0
 27 68  1  0
 30 69  1  0
 30 70  1  0
 30 71  1  0
 31 72  1  0
 31 73  1  0
 31 74  1  0
 34 75  1  0
 36 76  1  0
 36 77  1  0
 37 78  1  0
 37 79  1  0
 42 80  1  0
 42 81  1  0
 42 82  1  0
 43 83  1  0
 43 84  1  0
 43 85  1  0
 44 86  1  1
M  END
