
     RDKit          3D

 50 51  0  0  0  0  0  0  0  0999 V2000
  -33.4622  -14.6754   47.1245 C   0  0  0  0  0  0  0  0  0  0  0  0
  -28.0250  -11.7524   41.8650 C   0  0  0  0  0  0  0  0  0  0  0  0
  -28.4144  -12.8035   42.2994 C   0  0  0  0  0  0  0  0  0  0  0  0
  -29.0651  -14.0347   42.7708 C   0  0  0  0  0  0  0  0  0  0  0  0
  -29.2656  -14.8317   41.6719 C   0  0  0  0  0  0  0  0  0  0  0  0
  -30.3619  -13.7331   43.4898 C   0  0  0  0  0  0  0  0  0  0  0  0
  -30.6368  -14.2375   44.7634 C   0  0  0  0  0  0  0  0  0  0  0  0
  -31.8346  -13.9192   45.4126 C   0  0  0  0  0  0  0  0  0  0  0  0
  -32.7573  -13.0795   44.7772 C   0  0  0  0  0  0  0  0  0  0  0  0
  -32.4941  -12.5629   43.5083 C   0  0  0  0  0  0  0  0  0  0  0  0
  -31.2970  -12.8922   42.8731 C   0  0  0  0  0  0  0  0  0  0  0  0
  -33.3330  -11.3357   41.5293 C   0  0  0  0  0  0  0  0  0  0  0  0
  -34.0300  -11.8610   46.4162 C   0  0  0  0  0  0  0  0  0  0  0  0
  -28.2511  -15.1144   43.2684 C   0  0  0  0  0  0  0  0  0  0  0  0
  -26.6403  -11.4951   39.3114 C   0  0  0  0  0  0  0  0  0  0  0  0
  -27.5709   -8.0823   41.6549 N   0  0  0  0  0  0  0  0  0  0  0  0
  -28.5394   -9.3980   43.4160 N   0  0  0  0  0  0  0  0  0  0  0  0
  -26.6374   -6.6746   39.9494 N   0  0  0  0  0  0  0  0  0  0  0  0
  -32.1304  -14.4326   46.6797 O   0  0  0  0  0  0  0  0  0  0  0  0
  -33.4436  -11.7466   42.8883 O   0  0  0  0  0  0  0  0  0  0  0  0
  -33.9802  -12.8208   45.3728 O   0  0  0  0  0  0  0  0  0  0  0  0
  -26.9714   -7.9597   40.4454 C   0  0  0  0  0  0  0  0  0  0  0  0
  -26.6826   -9.0626   39.7112 N   0  0  0  0  0  0  0  0  0  0  0  0
  -26.9894  -10.3055   40.1599 C   0  0  0  0  0  0  0  0  0  0  0  0
  -27.6295  -10.4505   41.4010 C   0  0  0  0  0  0  0  0  0  0  0  0
  -27.9037   -9.3006   42.1482 C   0  0  0  0  0  0  0  0  0  0  0  0
  -33.9542  -15.4316   46.4765 H   0  0  0  0  0  0  0  0  0  0  0  0
  -33.4278  -15.0740   48.1590 H   0  0  0  0  0  0  0  0  0  0  0  0
  -34.0445  -13.7295   47.1352 H   0  0  0  0  0  0  0  0  0  0  0  0
  -28.9725  -15.9265   41.7076 H   0  0  0  0  0  0  0  0  0  0  0  0
  -30.2035  -14.6742   41.0570 H   0  0  0  0  0  0  0  0  0  0  0  0
  -28.5358  -14.5167   40.8882 H   0  0  0  0  0  0  0  0  0  0  0  0
  -29.9154  -14.8688   45.2550 H   0  0  0  0  0  0  0  0  0  0  0  0
  -31.0732  -12.4882   41.8963 H   0  0  0  0  0  0  0  0  0  0  0  0
  -34.2424  -10.7645   41.2521 H   0  0  0  0  0  0  0  0  0  0  0  0
  -33.2586  -12.2207   40.8618 H   0  0  0  0  0  0  0  0  0  0  0  0
  -32.4532  -10.6708   41.3974 H   0  0  0  0  0  0  0  0  0  0  0  0
  -33.7008  -10.8680   46.0422 H   0  0  0  0  0  0  0  0  0  0  0  0
  -35.0737  -11.7763   46.7821 H   0  0  0  0  0  0  0  0  0  0  0  0
  -33.3799  -12.1771   47.2601 H   0  0  0  0  0  0  0  0  0  0  0  0
  -27.1672  -14.9069   43.5126 H   0  0  0  0  0  0  0  0  0  0  0  0
  -28.6144  -15.2735   44.3076 H   0  0  0  0  0  0  0  0  0  0  0  0
  -28.3885  -16.1499   42.8392 H   0  0  0  0  0  0  0  0  0  0  0  0
  -26.0327  -11.1849   38.4350 H   0  0  0  0  0  0  0  0  0  0  0  0
  -27.5677  -11.9826   38.9434 H   0  0  0  0  0  0  0  0  0  0  0  0
  -26.0520  -12.2247   39.9068 H   0  0  0  0  0  0  0  0  0  0  0  0
  -28.6811   -8.5527   44.0123 H   0  0  0  0  0  0  0  0  0  0  0  0
  -28.6811   -8.5527   44.0123 H   0  0  0  0  0  0  0  0  0  0  0  0
  -26.1728   -6.5704   39.0201 H   0  0  0  0  0  0  0  0  0  0  0  0
  -26.8529   -5.8193   40.5083 H   0  0  0  0  0  0  0  0  0  0  0  0
  3  2  3  0
  4  3  1  0
  4  5  1  0
  6  4  1  0
  7  6  2  0
  8  7  1  0
  9  8  2  0
 10  9  1  0
 11 10  2  0
 11  6  1  0
 14  4  1  0
 19  8  1  0
 19  1  1  0
 20 12  1  0
 20 10  1  0
 21 13  1  0
 21  9  1  0
 22 18  1  0
 22 16  2  0
 23 22  1  0
 24 23  2  0
 24 15  1  0
 25  2  1  0
 25 24  1  0
 26 25  2  0
 26 17  1  0
 26 16  1  0
  1 27  1  0
  1 28  1  0
  1 29  1  0
  5 30  1  0
  5 31  1  0
  5 32  1  0
  7 33  1  0
 11 34  1  0
 12 35  1  0
 12 36  1  0
 12 37  1  0
 13 38  1  0
 13 39  1  0
 13 40  1  0
 14 41  1  0
 14 42  1  0
 14 43  1  0
 15 44  1  0
 15 45  1  0
 15 46  1  0
 17 47  1  0
 17 48  1  0
 18 49  1  0
 18 50  1  0
M  END
