
     RDKit          3D

 31 32  0  0  0  0  0  0  0  0999 V2000
   -2.3059  -57.3825   45.3445 C   0  0  1  0  0  0  0  0  0  0  0  0
   -3.5789  -57.9798   45.3969 O   0  0  0  0  0  0  0  0  0  0  0  0
   -2.0015  -56.6828   46.6853 C   0  0  1  0  0  0  0  0  0  0  0  0
   -2.0784  -57.6245   47.7280 O   0  0  0  0  0  0  0  0  0  0  0  0
   -0.5888  -56.0618   46.6347 C   0  0  1  0  0  0  0  0  0  0  0  0
   -0.2308  -55.5566   47.8958 O   0  0  0  0  0  0  0  0  0  0  0  0
    0.4265  -57.1264   46.2007 C   0  0  2  0  0  0  0  0  0  0  0  0
    1.7065  -56.5440   46.0171 O   0  0  0  0  0  0  0  0  0  0  0  0
   -0.0447  -57.7623   44.8930 C   0  0  2  0  0  0  0  0  0  0  0  0
   -1.3205  -58.3681   45.0495 O   0  0  0  0  0  0  0  0  0  0  0  0
    1.0036  -58.8069   44.5352 C   0  0  0  0  0  0  0  0  0  0  0  0
    2.2885  -58.2133   44.4338 O   0  0  0  0  0  0  0  0  0  0  0  0
    2.6774  -57.5131   45.6189 C   0  0  1  0  0  0  0  0  0  0  0  0
    3.0042  -58.0501   47.9402 O   0  0  0  0  0  0  0  0  0  0  0  0
    3.9675  -56.7559   45.2825 C   0  0  0  0  0  0  0  0  0  0  0  0
    3.3383  -59.7720   46.4658 O   0  0  0  0  0  0  0  0  0  0  0  0
    3.0026  -58.4601   46.7485 C   0  0  0  0  0  0  0  0  0  0  0  0
   -2.3368  -56.6195   44.5329 H   0  0  0  0  0  0  0  0  0  0  0  0
   -4.0351  -57.6378   46.2097 H   0  0  0  0  0  0  0  0  0  0  0  0
   -2.7545  -55.8742   46.8395 H   0  0  0  0  0  0  0  0  0  0  0  0
   -2.2224  -58.5115   47.3062 H   0  0  0  0  0  0  0  0  0  0  0  0
   -0.5792  -55.2340   45.8860 H   0  0  0  0  0  0  0  0  0  0  0  0
    0.4899  -54.8913   47.7417 H   0  0  0  0  0  0  0  0  0  0  0  0
    0.4612  -57.8982   47.0050 H   0  0  0  0  0  0  0  0  0  0  0  0
   -0.0677  -57.0032   44.0754 H   0  0  0  0  0  0  0  0  0  0  0  0
    1.0060  -59.6382   45.2744 H   0  0  0  0  0  0  0  0  0  0  0  0
    0.7438  -59.2491   43.5504 H   0  0  0  0  0  0  0  0  0  0  0  0
    4.3168  -56.1675   46.1589 H   0  0  0  0  0  0  0  0  0  0  0  0
    4.7658  -57.4769   45.0044 H   0  0  0  0  0  0  0  0  0  0  0  0
    3.8063  -56.0664   44.4253 H   0  0  0  0  0  0  0  0  0  0  0  0
    3.6402  -60.4010   47.2001 H   0  0  0  0  0  0  0  0  0  0  0  0
  1  2  1  0
  3  1  1  0
  3  4  1  0
  5  3  1  0
  5  6  1  0
  7  5  1  0
  7  8  1  0
  9  7  1  0
 10  9  1  0
 10  1  1  0
  9 11  1  0
 12 11  1  0
 13 12  1  0
 13  8  1  0
 13 15  1  6
 17 16  1  0
 17 14  2  0
 17 13  1  0
  1 18  1  6
  2 19  1  0
  3 20  1  1
  4 21  1  0
  5 22  1  6
  6 23  1  0
  7 24  1  1
  9 25  1  6
 11 26  1  0
 11 27  1  0
 15 28  1  0
 15 29  1  0
 15 30  1  0
 16 31  1  0
M  END
