
     RDKit          3D

 31 32  0  0  0  0  0  0  0  0999 V2000
   -2.3713  -56.6186   45.5211 C   0  0  1  0  0  0  0  0  0  0  0  0
   -3.6416  -57.2196   45.5938 O   0  0  0  0  0  0  0  0  0  0  0  0
   -2.0500  -55.9130   46.8549 C   0  0  1  0  0  0  0  0  0  0  0  0
   -2.1091  -56.8512   47.9020 O   0  0  0  0  0  0  0  0  0  0  0  0
   -0.6401  -55.2879   46.7818 C   0  0  1  0  0  0  0  0  0  0  0  0
   -0.2657  -54.7770   48.0358 O   0  0  0  0  0  0  0  0  0  0  0  0
    0.3722  -56.3510   46.3373 C   0  0  2  0  0  0  0  0  0  0  0  0
    1.6476  -55.7654   46.1334 O   0  0  0  0  0  0  0  0  0  0  0  0
   -0.1156  -56.9932   45.0388 C   0  0  2  0  0  0  0  0  0  0  0  0
   -1.3872  -57.6022   45.2157 O   0  0  0  0  0  0  0  0  0  0  0  0
    0.9307  -58.0358   44.6699 C   0  0  0  0  0  0  0  0  0  0  0  0
    2.2122  -57.4387   44.5479 O   0  0  0  0  0  0  0  0  0  0  0  0
    2.6158  -56.7329   45.7248 C   0  0  1  0  0  0  0  0  0  0  0  0
    2.9773  -57.2604   48.0432 O   0  0  0  0  0  0  0  0  0  0  0  0
    3.8986  -55.9731   45.3673 C   0  0  0  0  0  0  0  0  0  0  0  0
    3.2957  -58.9867   46.5704 O   0  0  0  0  0  0  0  0  0  0  0  0
    2.9599  -57.6748   46.8531 C   0  0  0  0  0  0  0  0  0  0  0  0
   -2.4162  -55.8587   44.7073 H   0  0  0  0  0  0  0  0  0  0  0  0
   -4.3072  -56.4944   45.7237 H   0  0  0  0  0  0  0  0  0  0  0  0
   -2.8032  -55.1062   47.0169 H   0  0  0  0  0  0  0  0  0  0  0  0
   -1.9075  -57.7390   47.5063 H   0  0  0  0  0  0  0  0  0  0  0  0
   -0.6437  -54.4628   46.0301 H   0  0  0  0  0  0  0  0  0  0  0  0
   -0.5251  -55.4584   48.7098 H   0  0  0  0  0  0  0  0  0  0  0  0
    0.4207  -57.1198   47.1438 H   0  0  0  0  0  0  0  0  0  0  0  0
   -0.1526  -56.2371   44.2188 H   0  0  0  0  0  0  0  0  0  0  0  0
    0.9462  -58.8645   45.4119 H   0  0  0  0  0  0  0  0  0  0  0  0
    0.6583  -58.4825   43.6904 H   0  0  0  0  0  0  0  0  0  0  0  0
    3.6647  -54.9290   45.0651 H   0  0  0  0  0  0  0  0  0  0  0  0
    4.5744  -55.9393   46.2486 H   0  0  0  0  0  0  0  0  0  0  0  0
    4.4357  -56.4785   44.5353 H   0  0  0  0  0  0  0  0  0  0  0  0
    3.5976  -59.6157   47.3047 H   0  0  0  0  0  0  0  0  0  0  0  0
  1  2  1  0
  3  1  1  0
  3  4  1  0
  5  3  1  0
  5  6  1  0
  7  5  1  0
  7  8  1  0
  9  7  1  0
 10  9  1  0
 10  1  1  0
  9 11  1  0
 12 11  1  0
 13 12  1  0
 13  8  1  0
 13 15  1  6
 17 16  1  0
 17 14  2  0
 17 13  1  0
  1 18  1  6
  2 19  1  0
  3 20  1  1
  4 21  1  0
  5 22  1  6
  6 23  1  0
  7 24  1  1
  9 25  1  6
 11 26  1  0
 11 27  1  0
 15 28  1  0
 15 29  1  0
 15 30  1  0
 16 31  1  0
M  END
