
     RDKit          3D

 17 18  0  0  0  0  0  0  0  0999 V2000
    4.8374   11.0722   31.5571 N   0  0  0  0  0  0  0  0  0  0  0  0
    5.5700   10.5445   30.5802 N   0  0  0  0  0  0  0  0  0  0  0  0
    6.8473   10.4533   31.0238 C   0  0  0  0  0  0  0  0  0  0  0  0
    7.9663   11.0594   33.1975 C   0  0  0  0  0  0  0  0  0  0  0  0
    7.7029   11.6040   34.4606 C   0  0  0  0  0  0  0  0  0  0  0  0
    6.4041   12.0072   34.7991 C   0  0  0  0  0  0  0  0  0  0  0  0
    5.3453   11.8694   33.8746 C   0  0  0  0  0  0  0  0  0  0  0  0
    5.6392   11.3171   32.6165 C   0  0  0  0  0  0  0  0  0  0  0  0
    6.9065   10.9342   32.3054 C   0  0  0  0  0  0  0  0  0  0  0  0
    4.0386   12.2889   34.2384 N   0  0  0  0  0  0  0  0  0  0  0  0
    3.1763   11.3903   34.7988 O   0  0  0  0  0  0  0  0  0  0  0  0
    3.6575   13.4593   34.0633 O   0  0  0  0  0  0  0  0  0  0  0  0
    8.3227    9.7953   30.0341 Br  0  0  0  0  0  0  0  0  0  0  0  0
    3.8153   11.2459   31.4612 H   0  0  0  0  0  0  0  0  0  0  0  0
    8.9669   10.7473   32.9280 H   0  0  0  0  0  0  0  0  0  0  0  0
    8.5064   11.7147   35.1773 H   0  0  0  0  0  0  0  0  0  0  0  0
    6.2348   12.4254   35.7827 H   0  0  0  0  0  0  0  0  0  0  0  0
  2  1  1  0
  3  2  2  0
  5  4  1  0
  6  5  2  0
  7  6  1  0
  8  1  1  0
  8  7  2  0
  9  8  1  0
  9  4  2  0
  9  3  1  0
 10  7  1  0
 11 10  1  0
 12 10  2  0
 13  3  1  0
  1 14  1  0
  4 15  1  0
  5 16  1  0
  6 17  1  0
M  CHG  2  10   1  11  -1
M  END
