
     RDKit          3D

 17 18  0  0  0  0  0  0  0  0999 V2000
    5.2721   10.5856   31.7319 N   0  0  0  0  0  0  0  0  0  0  0  0
    5.9247   10.1125   30.6737 N   0  0  0  0  0  0  0  0  0  0  0  0
    7.2258    9.9635   31.0225 C   0  0  0  0  0  0  0  0  0  0  0  0
    8.5012   10.3918   33.1520 C   0  0  0  0  0  0  0  0  0  0  0  0
    8.3359   10.8518   34.4644 C   0  0  0  0  0  0  0  0  0  0  0  0
    7.0731   11.2575   34.9169 C   0  0  0  0  0  0  0  0  0  0  0  0
    5.9523   11.2073   34.0589 C   0  0  0  0  0  0  0  0  0  0  0  0
    6.1481   10.7385   32.7489 C   0  0  0  0  0  0  0  0  0  0  0  0
    7.3818   10.3518   32.3271 C   0  0  0  0  0  0  0  0  0  0  0  0
    4.6837   11.6276   34.5383 N   0  0  0  0  0  0  0  0  0  0  0  0
    3.5550   11.0069   34.0847 O   0  0  0  0  0  0  0  0  0  0  0  0
    4.5723   12.5476   35.3671 O   0  0  0  0  0  0  0  0  0  0  0  0
    8.6152    9.3457   29.8924 Br  0  0  0  0  0  0  0  0  0  0  0  0
    4.2507   10.7870   31.7176 H   0  0  0  0  0  0  0  0  0  0  0  0
    9.4735   10.0784   32.7945 H   0  0  0  0  0  0  0  0  0  0  0  0
    9.1876   10.8950   35.1309 H   0  0  0  0  0  0  0  0  0  0  0  0
    6.9800   11.6091   35.9361 H   0  0  0  0  0  0  0  0  0  0  0  0
  2  1  1  0
  3  2  2  0
  5  4  1  0
  6  5  2  0
  7  6  1  0
  8  1  1  0
  8  7  2  0
  9  8  1  0
  9  4  2  0
  9  3  1  0
 10  7  1  0
 11 10  1  0
 12 10  2  0
 13  3  1  0
  1 14  1  0
  4 15  1  0
  5 16  1  0
  6 17  1  0
M  CHG  2  10   1  11  -1
M  END
