
     RDKit          3D

 17 18  0  0  0  0  0  0  0  0999 V2000
    7.1518   11.1241   30.8695 N   0  0  0  0  0  0  0  0  0  0  0  0
    7.7156   10.7249   29.7327 N   0  0  0  0  0  0  0  0  0  0  0  0
    9.0527   10.9148   29.8450 C   0  0  0  0  0  0  0  0  0  0  0  0
   10.5191   11.8148   31.6847 C   0  0  0  0  0  0  0  0  0  0  0  0
   10.4661   12.3374   32.9829 C   0  0  0  0  0  0  0  0  0  0  0  0
    9.2354   12.4756   33.6390 C   0  0  0  0  0  0  0  0  0  0  0  0
    8.0349   12.0899   33.0028 C   0  0  0  0  0  0  0  0  0  0  0  0
    8.1197   11.5662   31.7018 C   0  0  0  0  0  0  0  0  0  0  0  0
    9.3229   11.4423   31.0803 C   0  0  0  0  0  0  0  0  0  0  0  0
    6.7996   12.2433   33.6856 N   0  0  0  0  0  0  0  0  0  0  0  0
    6.0491   11.1390   33.9725 O   0  0  0  0  0  0  0  0  0  0  0  0
    6.3824   13.3613   34.0349 O   0  0  0  0  0  0  0  0  0  0  0  0
   10.3439   10.5410   28.5099 Br  0  0  0  0  0  0  0  0  0  0  0  0
    6.1243   11.0797   31.0323 H   0  0  0  0  0  0  0  0  0  0  0  0
   11.4654   11.7066   31.1707 H   0  0  0  0  0  0  0  0  0  0  0  0
   11.3796   12.6367   33.4804 H   0  0  0  0  0  0  0  0  0  0  0  0
    9.2293   12.8843   34.6411 H   0  0  0  0  0  0  0  0  0  0  0  0
  2  1  1  0
  3  2  2  0
  5  4  1  0
  6  5  2  0
  7  6  1  0
  8  1  1  0
  8  7  2  0
  9  8  1  0
  9  4  2  0
  9  3  1  0
 10  7  1  0
 11 10  1  0
 12 10  2  0
 13  3  1  0
  1 14  1  0
  4 15  1  0
  5 16  1  0
  6 17  1  0
M  CHG  2  10   1  11  -1
M  END
