
     RDKit          3D

 17 18  0  0  0  0  0  0  0  0999 V2000
   -0.0959   12.4945   66.7646 N   0  0  0  0  0  0  0  0  0  0  0  0
    0.5139   12.2435   67.9196 N   0  0  0  0  0  0  0  0  0  0  0  0
    1.2982   11.1504   67.7493 C   0  0  0  0  0  0  0  0  0  0  0  0
    1.7466    9.6483   65.7727 C   0  0  0  0  0  0  0  0  0  0  0  0
    1.3933    9.4536   64.4307 C   0  0  0  0  0  0  0  0  0  0  0  0
    0.4796   10.3150   63.8070 C   0  0  0  0  0  0  0  0  0  0  0  0
   -0.0922   11.3925   64.5193 C   0  0  0  0  0  0  0  0  0  0  0  0
    0.2894   11.5685   65.8604 C   0  0  0  0  0  0  0  0  0  0  0  0
    1.1716   10.7172   66.4526 C   0  0  0  0  0  0  0  0  0  0  0  0
   -1.0221   12.2499   63.8718 N   0  0  0  0  0  0  0  0  0  0  0  0
   -1.3952   11.9916   62.5847 O   0  0  0  0  0  0  0  0  0  0  0  0
   -1.5100   13.2359   64.4495 O   0  0  0  0  0  0  0  0  0  0  0  0
    2.3069   10.2875   69.1143 Br  0  0  0  0  0  0  0  0  0  0  0  0
   -0.7588   13.2879   66.6423 H   0  0  0  0  0  0  0  0  0  0  0  0
    2.4452    8.9826   66.2629 H   0  0  0  0  0  0  0  0  0  0  0  0
    1.8243    8.6307   63.8751 H   0  0  0  0  0  0  0  0  0  0  0  0
    0.2239   10.1338   62.7712 H   0  0  0  0  0  0  0  0  0  0  0  0
  2  1  1  0
  3  2  2  0
  5  4  1  0
  6  5  2  0
  7  6  1  0
  8  7  2  0
  8  1  1  0
  9  8  1  0
  9  4  2  0
  9  3  1  0
 10  7  1  0
 11 10  1  0
 12 10  2  0
 13  3  1  0
  1 14  1  0
  4 15  1  0
  5 16  1  0
  6 17  1  0
M  CHG  2  10   1  11  -1
M  END
