
     RDKit          3D

 17 18  0  0  0  0  0  0  0  0999 V2000
   -0.5145    1.6468   53.9755 N   0  0  0  0  0  0  0  0  0  0  0  0
   -0.6362    2.5993   54.8960 N   0  0  0  0  0  0  0  0  0  0  0  0
    0.5503    3.2514   54.9838 C   0  0  0  0  0  0  0  0  0  0  0  0
    2.7566    2.9694   53.7923 C   0  0  0  0  0  0  0  0  0  0  0  0
    3.3934    2.1909   52.8159 C   0  0  0  0  0  0  0  0  0  0  0  0
    2.6977    1.1603   52.1667 C   0  0  0  0  0  0  0  0  0  0  0  0
    1.3486    0.8922   52.4877 C   0  0  0  0  0  0  0  0  0  0  0  0
    0.7392    1.6853   53.4748 C   0  0  0  0  0  0  0  0  0  0  0  0
    1.4288    2.6836   54.0935 C   0  0  0  0  0  0  0  0  0  0  0  0
    0.6560   -0.1498   51.8137 N   0  0  0  0  0  0  0  0  0  0  0  0
   -0.6367   -0.4318   52.1504 O   0  0  0  0  0  0  0  0  0  0  0  0
    1.2042   -0.8257   50.9268 O   0  0  0  0  0  0  0  0  0  0  0  0
    0.9268    4.7262   56.1336 Br  0  0  0  0  0  0  0  0  0  0  0  0
   -1.2965    1.0059   53.7278 H   0  0  0  0  0  0  0  0  0  0  0  0
    3.2868    3.7671   54.2963 H   0  0  0  0  0  0  0  0  0  0  0  0
    4.4266    2.3880   52.5608 H   0  0  0  0  0  0  0  0  0  0  0  0
    3.2170    0.5797   51.4155 H   0  0  0  0  0  0  0  0  0  0  0  0
  2  1  1  0
  3  2  2  0
  5  4  1  0
  6  5  2  0
  7  6  1  0
  8  7  2  0
  8  1  1  0
  9  8  1  0
  9  4  2  0
  9  3  1  0
 10  7  1  0
 11 10  1  0
 12 10  2  0
 13  3  1  0
  1 14  1  0
  4 15  1  0
  5 16  1  0
  6 17  1  0
M  CHG  2  10   1  11  -1
M  END
