
     RDKit          3D

 28 28  0  0  0  0  0  0  0  0999 V2000
   16.3337   34.3808   -9.7102 P   0  0  0  0  0  0  0  0  0  0  0  0
   16.5817   36.1766   -7.3654 P   0  0  0  0  0  0  0  0  0  0  0  0
   15.3327   31.8975   -8.7146 C   0  0  0  0  0  0  0  0  0  0  0  0
   15.5173   32.2048   -7.3605 C   0  0  0  0  0  0  0  0  0  0  0  0
   15.3785   31.1752   -6.4133 C   0  0  0  0  0  0  0  0  0  0  0  0
   15.0023   29.9337   -6.8144 N   0  0  0  0  0  0  0  0  0  0  0  0
   14.7811   29.6403   -8.1219 C   0  0  0  0  0  0  0  0  0  0  0  0
   14.9538   30.6183   -9.0981 C   0  0  0  0  0  0  0  0  0  0  0  0
   16.0053   33.5838   -7.0334 C   0  0  0  0  0  0  0  0  0  0  0  0
   15.7019   34.7231   -8.0263 C   0  0  0  0  0  0  0  0  0  0  0  0
   16.5209   37.2896   -8.3831 O   0  0  0  0  0  0  0  0  0  0  0  0
   18.1840   35.7828   -7.0809 O   0  0  0  0  0  0  0  0  0  0  0  0
   15.8448   36.7208   -5.9513 O   0  0  0  0  0  0  0  0  0  0  0  0
   14.3266   35.0020   -8.0908 O   0  0  0  0  0  0  0  0  0  0  0  0
   17.5684   33.5381   -9.5497 O   0  0  0  0  0  0  0  0  0  0  0  0
   16.7383   35.8172  -10.4831 O   0  0  0  0  0  0  0  0  0  0  0  0
   15.2542   33.5613  -10.7018 O   0  0  0  0  0  0  0  0  0  0  0  0
   15.4792   32.6487   -9.4815 H   0  0  0  0  0  0  0  0  0  0  0  0
   15.5654   31.3378   -5.3649 H   0  0  0  0  0  0  0  0  0  0  0  0
   14.4834   28.6395   -8.4048 H   0  0  0  0  0  0  0  0  0  0  0  0
   14.7971   30.3827  -10.1428 H   0  0  0  0  0  0  0  0  0  0  0  0
   15.5820   33.8387   -6.0371 H   0  0  0  0  0  0  0  0  0  0  0  0
   17.1102   33.5341   -6.8994 H   0  0  0  0  0  0  0  0  0  0  0  0
   18.1808   34.8428   -6.7729 H   0  0  0  0  0  0  0  0  0  0  0  0
   16.1515   37.6537   -5.8288 H   0  0  0  0  0  0  0  0  0  0  0  0
   14.1101   35.2765   -9.0201 H   0  0  0  0  0  0  0  0  0  0  0  0
   16.0938   35.8936  -11.2313 H   0  0  0  0  0  0  0  0  0  0  0  0
   15.7971   33.2651  -11.4754 H   0  0  0  0  0  0  0  0  0  0  0  0
  4  3  2  0
  5  4  1  0
  6  5  2  0
  7  6  1  0
  8  7  2  0
  8  3  1  0
  9  4  1  0
 10  9  1  0
 10  2  1  0
 10  1  1  0
 11  2  2  0
 12  2  1  0
 13  2  1  0
 10 14  1  0
 15  1  2  0
 16  1  1  0
 17  1  1  0
  3 18  1  0
  5 19  1  0
  7 20  1  0
  8 21  1  0
  9 22  1  0
  9 23  1  0
 12 24  1  0
 13 25  1  0
 14 26  1  0
 16 27  1  0
 17 28  1  0
M  END
