
     RDKit          3D

 40 43  0  0  0  0  0  0  0  0999 V2000
   11.9673   -5.8130   11.1604 C   0  0  0  0  0  0  0  0  0  0  0  0
   10.9237   -6.6573   11.5830 N   0  0  0  0  0  0  0  0  0  0  0  0
   11.5734   -7.8439   11.9418 C   0  0  0  0  0  0  0  0  0  0  0  0
   12.9756   -7.7970   11.7593 N   0  0  0  0  0  0  0  0  0  0  0  0
   13.3242   -6.4860   11.1896 C   0  0  1  0  0  0  0  0  0  0  0  0
   13.8688   -6.6632    9.7605 C   0  0  0  0  0  0  0  0  0  0  0  0
   13.1724   -7.4403    8.8072 C   0  0  0  0  0  0  0  0  0  0  0  0
   13.6821   -7.6213    7.5190 C   0  0  0  0  0  0  0  0  0  0  0  0
   14.9029   -7.0531    7.1620 C   0  0  0  0  0  0  0  0  0  0  0  0
   15.6211   -6.3083    8.0947 C   0  0  0  0  0  0  0  0  0  0  0  0
   15.1162   -6.1183    9.3817 C   0  0  0  0  0  0  0  0  0  0  0  0
   11.7555   -4.6190   10.8321 O   0  0  0  0  0  0  0  0  0  0  0  0
   10.9632   -8.8386   12.4022 O   0  0  0  0  0  0  0  0  0  0  0  0
   17.0227   -3.9358   10.6585 O   0  0  0  0  0  0  0  0  0  0  0  0
   16.2740   -4.7432   11.2607 C   0  0  0  0  0  0  0  0  0  0  0  0
   16.7353   -5.9253   11.8592 N   0  0  0  0  0  0  0  0  0  0  0  0
   14.8834   -4.5589   11.3832 N   0  0  0  0  0  0  0  0  0  0  0  0
   14.3192   -5.6994   12.1179 C   0  0  2  0  0  0  0  0  0  0  0  0
   15.5650   -6.5167   12.3838 C   0  0  0  0  0  0  0  0  0  0  0  0
   15.5804   -7.6391   12.9490 O   0  0  0  0  0  0  0  0  0  0  0  0
   13.7009   -5.2115   13.4407 C   0  0  0  0  0  0  0  0  0  0  0  0
   14.5078   -4.9754   14.5777 C   0  0  0  0  0  0  0  0  0  0  0  0
   13.9465   -4.5531   15.7836 C   0  0  0  0  0  0  0  0  0  0  0  0
   12.5735   -4.3422   15.8822 C   0  0  0  0  0  0  0  0  0  0  0  0
   11.7597   -4.5449   14.7690 C   0  0  0  0  0  0  0  0  0  0  0  0
   12.3145   -4.9693   13.5576 C   0  0  0  0  0  0  0  0  0  0  0  0
    9.9097   -6.4271   11.6769 H   0  0  0  0  0  0  0  0  0  0  0  0
   13.6313   -8.5531   12.0553 H   0  0  0  0  0  0  0  0  0  0  0  0
   12.2358   -7.9213    9.0464 H   0  0  0  0  0  0  0  0  0  0  0  0
   13.1321   -8.2132    6.7988 H   0  0  0  0  0  0  0  0  0  0  0  0
   15.2981   -7.1997    6.1651 H   0  0  0  0  0  0  0  0  0  0  0  0
   16.5782   -5.8826    7.8218 H   0  0  0  0  0  0  0  0  0  0  0  0
   15.7271   -5.5637   10.0755 H   0  0  0  0  0  0  0  0  0  0  0  0
   17.7091   -6.3015   11.8745 H   0  0  0  0  0  0  0  0  0  0  0  0
   14.3688   -3.7756   10.9255 H   0  0  0  0  0  0  0  0  0  0  0  0
   15.5786   -5.1058   14.5545 H   0  0  0  0  0  0  0  0  0  0  0  0
   14.5804   -4.3833   16.6445 H   0  0  0  0  0  0  0  0  0  0  0  0
   12.1409   -4.0125   16.8180 H   0  0  0  0  0  0  0  0  0  0  0  0
   10.6944   -4.3678   14.8416 H   0  0  0  0  0  0  0  0  0  0  0  0
   11.6504   -5.0939   12.7163 H   0  0  0  0  0  0  0  0  0  0  0  0
  2  1  1  0
  3  2  1  0
  4  3  1  0
  5  4  1  0
  5  1  1  0
  5  6  1  6
  7  6  2  0
  8  7  1  0
  9  8  2  0
 10  9  1  0
 11 10  2  0
 11  6  1  0
 12  1  2  0
 13  3  2  0
 15 14  2  0
 16 15  1  0
 17 15  1  0
 18  5  1  0
 18 17  1  0
 19 18  1  0
 19 16  1  0
 20 19  2  0
 18 21  1  1
 22 21  2  0
 23 22  1  0
 24 23  2  0
 25 24  1  0
 26 25  2  0
 26 21  1  0
  2 27  1  0
  4 28  1  0
  7 29  1  0
  8 30  1  0
  9 31  1  0
 10 32  1  0
 11 33  1  0
 16 34  1  0
 17 35  1  0
 22 36  1  0
 23 37  1  0
 24 38  1  0
 25 39  1  0
 26 40  1  0
M  END
