
     RDKit          3D

 29 30  0  0  0  0  0  0  0  0999 V2000
   10.5654   38.5100   39.6972 Cl  0  0  0  0  0  0  0  0  0  0  0  0
    7.8211   40.4861   43.9250 Cl  0  0  0  0  0  0  0  0  0  0  0  0
   14.8964   40.5322   39.8159 C   0  0  0  0  0  0  0  0  0  0  0  0
   15.5240   39.3262   39.8344 N   0  0  0  0  0  0  0  0  0  0  0  0
   10.4734   41.4544   44.9058 O   0  0  0  0  0  0  0  0  0  0  0  0
   13.1153   39.6570   41.1071 C   0  0  0  0  0  0  0  0  0  0  0  0
   13.7017   40.6905   40.4445 N   0  0  0  0  0  0  0  0  0  0  0  0
   13.7540   38.4098   41.1462 C   0  0  0  0  0  0  0  0  0  0  0  0
   15.4858   41.6334   39.1359 N   0  0  0  0  0  0  0  0  0  0  0  0
   14.9775   38.2640   40.4825 C   0  0  0  0  0  0  0  0  0  0  0  0
   15.6877   36.9491   40.4815 C   0  0  0  0  0  0  0  0  0  0  0  0
   11.8157   39.8631   41.7834 C   0  0  0  0  0  0  0  0  0  0  0  0
   10.6088   39.3880   41.2224 C   0  0  0  0  0  0  0  0  0  0  0  0
    9.3990   39.5875   41.8973 C   0  0  0  0  0  0  0  0  0  0  0  0
    9.3668   40.2682   43.1178 C   0  0  0  0  0  0  0  0  0  0  0  0
   10.5517   40.7639   43.6850 C   0  0  0  0  0  0  0  0  0  0  0  0
   11.7770   40.5507   43.0123 C   0  0  0  0  0  0  0  0  0  0  0  0
   11.6052   41.9136   45.6367 C   0  0  0  0  0  0  0  0  0  0  0  0
   13.3045   37.5734   41.6686 H   0  0  0  0  0  0  0  0  0  0  0  0
   15.5021   42.5834   39.5688 H   0  0  0  0  0  0  0  0  0  0  0  0
   15.5030   42.5841   39.5672 H   0  0  0  0  0  0  0  0  0  0  0  0
   15.3035   36.3160   39.6540 H   0  0  0  0  0  0  0  0  0  0  0  0
   15.5174   36.4308   41.4486 H   0  0  0  0  0  0  0  0  0  0  0  0
   16.7801   37.0946   40.3416 H   0  0  0  0  0  0  0  0  0  0  0  0
    8.4777   39.2115   41.4699 H   0  0  0  0  0  0  0  0  0  0  0  0
   12.7030   40.9198   43.4335 H   0  0  0  0  0  0  0  0  0  0  0  0
   11.7791   42.9916   45.4344 H   0  0  0  0  0  0  0  0  0  0  0  0
   12.5038   41.3219   45.3614 H   0  0  0  0  0  0  0  0  0  0  0  0
   11.4132   41.7827   46.7213 H   0  0  0  0  0  0  0  0  0  0  0  0
  4  3  2  0
  7  6  2  0
  7  3  1  0
  8  6  1  0
  9  3  1  0
 10  8  2  0
 10  4  1  0
 11 10  1  0
 12  6  1  0
 13 12  2  0
 13  1  1  0
 14 13  1  0
 15 14  2  0
 15  2  1  0
 16 15  1  0
 16  5  1  0
 17 12  1  0
 17 16  2  0
 18  5  1  0
  8 19  1  0
  9 20  1  0
  9 21  1  0
 11 22  1  0
 11 23  1  0
 11 24  1  0
 14 25  1  0
 17 26  1  0
 18 27  1  0
 18 28  1  0
 18 29  1  0
M  END
