
     RDKit          3D

 66 67  0  0  0  0  0  0  0  0999 V2000
   36.1662   12.6348   60.7629 P   0  0  1  0  0  0  0  0  0  0  0  0
   38.3164   11.2932   59.5655 C   0  0  2  0  0  0  0  0  0  0  0  0
   38.6758   10.4493   60.7564 C   0  0  0  0  0  0  0  0  0  0  0  0
   39.5158   11.3910   58.6387 C   0  0  0  0  0  0  0  0  0  0  0  0
   40.6808   12.0909   59.0178 C   0  0  0  0  0  0  0  0  0  0  0  0
   41.8028   12.1033   58.1829 C   0  0  0  0  0  0  0  0  0  0  0  0
   41.7805   11.4160   56.9657 C   0  0  0  0  0  0  0  0  0  0  0  0
   40.6249   10.7250   56.5648 C   0  0  0  0  0  0  0  0  0  0  0  0
   39.4995   10.7150   57.4054 C   0  0  0  0  0  0  0  0  0  0  0  0
   40.6023    9.9525   55.2713 C   0  0  0  0  0  0  0  0  0  0  0  0
   40.8366    8.5348   55.5310 N   0  0  0  0  0  0  0  0  0  0  0  0
   39.2385   10.9526   61.7663 O   0  0  0  0  0  0  0  0  0  0  0  0
   38.4210    9.0902   60.7117 O   0  0  0  0  0  0  0  0  0  0  0  0
   37.8067   12.6883   59.9540 C   0  0  0  0  0  0  0  0  0  0  0  0
   35.1075   12.4002   59.7097 O   0  0  0  0  0  0  0  0  0  0  0  0
   36.1388   11.3830   61.8827 O   0  0  0  0  0  0  0  0  0  0  0  0
   35.7915   14.1601   61.7079 C   0  0  2  0  0  0  0  0  0  0  0  0
   35.4335   15.3667   60.8031 C   0  0  0  0  0  0  0  0  0  0  0  0
   34.8409   16.4954   61.6598 C   0  0  0  0  0  0  0  0  0  0  0  0
   36.6229   15.9104   59.9898 C   0  0  0  0  0  0  0  0  0  0  0  0
   36.9091   14.5214   62.5966 N   0  0  0  0  0  0  0  0  0  0  0  0
   36.5023   12.8143   64.6359 O   0  0  0  0  0  0  0  0  0  0  0  0
   36.6654   14.2686   64.2930 S   0  0  0  0  0  0  0  0  0  0  0  0
   38.0660   14.9652   65.1722 C   0  0  0  0  0  0  0  0  0  0  0  0
   35.4187   15.0126   64.6764 O   0  0  0  0  0  0  0  0  0  0  0  0
   37.8983   14.8564   66.6926 C   0  0  0  0  0  0  0  0  0  0  0  0
   38.1699   16.1948   67.4066 C   0  0  0  0  0  0  0  0  0  0  0  0
   39.4484   16.8633   66.9349 C   0  0  0  0  0  0  0  0  0  0  0  0
   39.4334   18.2036   66.5021 C   0  0  0  0  0  0  0  0  0  0  0  0
   40.6146   18.8249   66.0741 C   0  0  0  0  0  0  0  0  0  0  0  0
   40.6684   16.1594   66.9336 C   0  0  0  0  0  0  0  0  0  0  0  0
   41.8482   16.7857   66.5081 C   0  0  0  0  0  0  0  0  0  0  0  0
   41.8211   18.1167   66.0779 C   0  0  0  0  0  0  0  0  0  0  0  0
   37.4851   10.7810   59.0306 H   0  0  0  0  0  0  0  0  0  0  0  0
   40.7330   12.6036   59.9692 H   0  0  0  0  0  0  0  0  0  0  0  0
   42.6960   12.6337   58.4869 H   0  0  0  0  0  0  0  0  0  0  0  0
   42.6629   11.4216   56.3379 H   0  0  0  0  0  0  0  0  0  0  0  0
   38.6187   10.1601   57.1046 H   0  0  0  0  0  0  0  0  0  0  0  0
   39.6203   10.0890   54.7651 H   0  0  0  0  0  0  0  0  0  0  0  0
   41.3868   10.3353   54.5819 H   0  0  0  0  0  0  0  0  0  0  0  0
   39.9944    8.1453   56.0142 H   0  0  0  0  0  0  0  0  0  0  0  0
   40.8982    8.0484   54.6073 H   0  0  0  0  0  0  0  0  0  0  0  0
   38.6641    8.4902   61.4908 H   0  0  0  0  0  0  0  0  0  0  0  0
   38.5572   13.2002   60.5809 H   0  0  0  0  0  0  0  0  0  0  0  0
   37.7046   13.2737   59.0199 H   0  0  0  0  0  0  0  0  0  0  0  0
   35.2091   11.3631   62.2235 H   0  0  0  0  0  0  0  0  0  0  0  0
   34.8762   13.9224   62.2862 H   0  0  0  0  0  0  0  0  0  0  0  0
   34.6415   15.0525   60.0876 H   0  0  0  0  0  0  0  0  0  0  0  0
   35.5984   16.8951   62.3678 H   0  0  0  0  0  0  0  0  0  0  0  0
   34.4881   17.3258   61.0115 H   0  0  0  0  0  0  0  0  0  0  0  0
   33.9674   16.1271   62.2391 H   0  0  0  0  0  0  0  0  0  0  0  0
   36.2769   16.2932   59.0059 H   0  0  0  0  0  0  0  0  0  0  0  0
   37.3364   15.0990   59.7634 H   0  0  0  0  0  0  0  0  0  0  0  0
   37.1439   16.7369   60.5161 H   0  0  0  0  0  0  0  0  0  0  0  0
   37.8086   14.0707   62.3389 H   0  0  0  0  0  0  0  0  0  0  0  0
   38.1553   16.0312   64.8748 H   0  0  0  0  0  0  0  0  0  0  0  0
   38.9902   14.4356   64.8569 H   0  0  0  0  0  0  0  0  0  0  0  0
   38.6117   14.0947   67.0752 H   0  0  0  0  0  0  0  0  0  0  0  0
   36.8718   14.5083   66.9386 H   0  0  0  0  0  0  0  0  0  0  0  0
   37.3200   16.8820   67.2039 H   0  0  0  0  0  0  0  0  0  0  0  0
   38.1916   16.0318   68.5066 H   0  0  0  0  0  0  0  0  0  0  0  0
   38.5079   18.7659   66.4994 H   0  0  0  0  0  0  0  0  0  0  0  0
   40.5938   19.8549   65.7424 H   0  0  0  0  0  0  0  0  0  0  0  0
   40.7057   15.1275   67.2598 H   0  0  0  0  0  0  0  0  0  0  0  0
   42.7815   16.2377   66.5101 H   0  0  0  0  0  0  0  0  0  0  0  0
   42.7328   18.5981   65.7483 H   0  0  0  0  0  0  0  0  0  0  0  0
  3  2  1  0
  4  2  1  0
  5  4  2  0
  6  5  1  0
  7  6  2  0
  8  7  1  0
  9  8  2  0
  9  4  1  0
 10  8  1  0
 11 10  1  0
 12  3  2  0
 13  3  1  0
  2 14  1  0
 14  1  1  0
 15  1  2  0
  1 16  1  1
 17  1  1  0
 18 17  1  0
 18 19  1  0
 20 18  1  0
 17 21  1  0
 23 22  2  0
 23 21  1  0
 23 24  1  0
 25 23  2  0
 26 24  1  0
 27 26  1  0
 28 27  1  0
 29 28  2  0
 30 29  1  0
 31 28  1  0
 32 31  2  0
 33 32  1  0
 33 30  2  0
  2 34  1  6
  5 35  1  0
  6 36  1  0
  7 37  1  0
  9 38  1  0
 10 39  1  0
 10 40  1  0
 11 41  1  0
 11 42  1  0
 13 43  1  0
 14 44  1  0
 14 45  1  0
 16 46  1  0
 17 47  1  1
 18 48  1  0
 19 49  1  0
 19 50  1  0
 19 51  1  0
 20 52  1  0
 20 53  1  0
 20 54  1  0
 21 55  1  0
 24 56  1  0
 24 57  1  0
 26 58  1  0
 26 59  1  0
 27 60  1  0
 27 61  1  0
 29 62  1  0
 30 63  1  0
 31 64  1  0
 32 65  1  0
 33 66  1  0
M  END
