
     RDKit          3D

 66 67  0  0  0  0  0  0  0  0999 V2000
   35.6556   12.9310   60.7664 P   0  0  1  0  0  0  0  0  0  0  0  0
   37.8053   11.6277   59.5263 C   0  0  2  0  0  0  0  0  0  0  0  0
   38.1896   10.7746   60.7028 C   0  0  0  0  0  0  0  0  0  0  0  0
   38.9914   11.7496   58.5855 C   0  0  0  0  0  0  0  0  0  0  0  0
   40.1532   12.4586   58.9576 C   0  0  0  0  0  0  0  0  0  0  0  0
   41.2641   12.4931   58.1086 C   0  0  0  0  0  0  0  0  0  0  0  0
   41.2339   11.8194   56.8839 C   0  0  0  0  0  0  0  0  0  0  0  0
   40.0811   11.1197   56.4901 C   0  0  0  0  0  0  0  0  0  0  0  0
   38.9668   11.0874   57.3448 C   0  0  0  0  0  0  0  0  0  0  0  0
   40.0505   10.3615   55.1883 C   0  0  0  0  0  0  0  0  0  0  0  0
   40.3042    8.9438   55.4288 N   0  0  0  0  0  0  0  0  0  0  0  0
   39.1066    9.9139   60.6123 O   0  0  0  0  0  0  0  0  0  0  0  0
   37.4861   10.9143   61.8859 O   0  0  0  0  0  0  0  0  0  0  0  0
   37.2849   13.0123   59.9371 C   0  0  0  0  0  0  0  0  0  0  0  0
   34.5862   12.6960   59.7242 O   0  0  0  0  0  0  0  0  0  0  0  0
   35.6569   11.6665   61.8721 O   0  0  0  0  0  0  0  0  0  0  0  0
   35.2760   14.4412   61.7334 C   0  0  2  0  0  0  0  0  0  0  0  0
   34.8926   15.6537   60.8470 C   0  0  0  0  0  0  0  0  0  0  0  0
   35.2767   16.9572   61.5628 C   0  0  0  0  0  0  0  0  0  0  0  0
   35.5334   15.6293   59.4468 C   0  0  0  0  0  0  0  0  0  0  0  0
   36.4008   14.8053   62.6117 N   0  0  0  0  0  0  0  0  0  0  0  0
   34.8314   13.9510   64.6232 O   0  0  0  0  0  0  0  0  0  0  0  0
   36.1820   14.5306   64.3081 S   0  0  0  0  0  0  0  0  0  0  0  0
   37.4821   13.4297   64.8718 C   0  0  0  0  0  0  0  0  0  0  0  0
   36.3249   15.8592   64.9933 O   0  0  0  0  0  0  0  0  0  0  0  0
   37.4137   13.1918   66.3852 C   0  0  0  0  0  0  0  0  0  0  0  0
   38.8029   13.2571   67.0491 C   0  0  0  0  0  0  0  0  0  0  0  0
   39.3617   14.6673   67.1046 C   0  0  0  0  0  0  0  0  0  0  0  0
   38.8053   15.6198   67.9805 C   0  0  0  0  0  0  0  0  0  0  0  0
   39.3255   16.9200   68.0388 C   0  0  0  0  0  0  0  0  0  0  0  0
   40.4497   15.0410   66.2919 C   0  0  0  0  0  0  0  0  0  0  0  0
   40.9692   16.3414   66.3560 C   0  0  0  0  0  0  0  0  0  0  0  0
   40.4071   17.2802   67.2279 C   0  0  0  0  0  0  0  0  0  0  0  0
   36.9730   11.1120   58.9964 H   0  0  0  0  0  0  0  0  0  0  0  0
   40.2119   12.9611   59.9140 H   0  0  0  0  0  0  0  0  0  0  0  0
   42.1551   13.0304   58.4071 H   0  0  0  0  0  0  0  0  0  0  0  0
   42.1080   11.8421   56.2450 H   0  0  0  0  0  0  0  0  0  0  0  0
   38.0885   10.5258   57.0490 H   0  0  0  0  0  0  0  0  0  0  0  0
   39.0606   10.4925   54.6963 H   0  0  0  0  0  0  0  0  0  0  0  0
   40.8216   10.7611   54.4933 H   0  0  0  0  0  0  0  0  0  0  0  0
   39.4728    8.5393   55.9183 H   0  0  0  0  0  0  0  0  0  0  0  0
   40.3594    8.4686   54.4989 H   0  0  0  0  0  0  0  0  0  0  0  0
   37.7092   10.3449   62.6934 H   0  0  0  0  0  0  0  0  0  0  0  0
   38.0376   13.5258   60.5602 H   0  0  0  0  0  0  0  0  0  0  0  0
   37.1640   13.6070   59.0112 H   0  0  0  0  0  0  0  0  0  0  0  0
   36.6133   11.4871   62.0566 H   0  0  0  0  0  0  0  0  0  0  0  0
   34.3710   14.1865   62.3206 H   0  0  0  0  0  0  0  0  0  0  0  0
   33.7874   15.6666   60.7201 H   0  0  0  0  0  0  0  0  0  0  0  0
   34.3969   17.6286   61.6627 H   0  0  0  0  0  0  0  0  0  0  0  0
   35.6720   16.7368   62.5775 H   0  0  0  0  0  0  0  0  0  0  0  0
   36.0730   17.4902   61.0006 H   0  0  0  0  0  0  0  0  0  0  0  0
   35.4347   16.6222   58.9581 H   0  0  0  0  0  0  0  0  0  0  0  0
   35.0005   14.9173   58.7928 H   0  0  0  0  0  0  0  0  0  0  0  0
   36.6122   15.3720   59.4872 H   0  0  0  0  0  0  0  0  0  0  0  0
   37.3020   14.3678   62.3374 H   0  0  0  0  0  0  0  0  0  0  0  0
   38.4556   13.8910   64.6029 H   0  0  0  0  0  0  0  0  0  0  0  0
   37.3936   12.4614   64.3345 H   0  0  0  0  0  0  0  0  0  0  0  0
   36.9762   12.1864   66.5675 H   0  0  0  0  0  0  0  0  0  0  0  0
   36.7427   13.9408   66.8585 H   0  0  0  0  0  0  0  0  0  0  0  0
   38.7157   12.8738   68.0888 H   0  0  0  0  0  0  0  0  0  0  0  0
   39.5021   12.5756   66.5165 H   0  0  0  0  0  0  0  0  0  0  0  0
   37.9717   15.3534   68.6183 H   0  0  0  0  0  0  0  0  0  0  0  0
   38.8913   17.6458   68.7142 H   0  0  0  0  0  0  0  0  0  0  0  0
   40.8936   14.3275   65.6089 H   0  0  0  0  0  0  0  0  0  0  0  0
   41.8054   16.6206   65.7280 H   0  0  0  0  0  0  0  0  0  0  0  0
   40.8086   18.2842   67.2750 H   0  0  0  0  0  0  0  0  0  0  0  0
  3  2  1  0
  4  2  1  0
  5  4  2  0
  6  5  1  0
  7  6  2  0
  8  7  1  0
  9  8  2  0
  9  4  1  0
 10  8  1  0
 11 10  1  0
 12  3  2  0
 13  3  1  0
  2 14  1  0
 14  1  1  0
 15  1  2  0
  1 16  1  1
 17  1  1  0
 18 17  1  0
 18 19  1  0
 20 18  1  0
 17 21  1  0
 23 22  2  0
 23 21  1  0
 23 24  1  0
 25 23  2  0
 26 24  1  0
 27 26  1  0
 28 27  1  0
 29 28  2  0
 30 29  1  0
 31 28  1  0
 32 31  2  0
 33 32  1  0
 33 30  2  0
  2 34  1  6
  5 35  1  0
  6 36  1  0
  7 37  1  0
  9 38  1  0
 10 39  1  0
 10 40  1  0
 11 41  1  0
 11 42  1  0
 13 43  1  0
 14 44  1  0
 14 45  1  0
 16 46  1  0
 17 47  1  1
 18 48  1  0
 19 49  1  0
 19 50  1  0
 19 51  1  0
 20 52  1  0
 20 53  1  0
 20 54  1  0
 21 55  1  0
 24 56  1  0
 24 57  1  0
 26 58  1  0
 26 59  1  0
 27 60  1  0
 27 61  1  0
 29 62  1  0
 30 63  1  0
 31 64  1  0
 32 65  1  0
 33 66  1  0
M  END
