
     RDKit          3D

 66 67  0  0  0  0  0  0  0  0999 V2000
   35.7451   13.5842   61.1120 P   0  0  1  0  0  0  0  0  0  0  0  0
   37.8680   12.0108   60.1766 C   0  0  2  0  0  0  0  0  0  0  0  0
   38.0786   11.2352   61.4470 C   0  0  0  0  0  0  0  0  0  0  0  0
   39.1336   11.9554   59.3386 C   0  0  0  0  0  0  0  0  0  0  0  0
   40.3181   12.5991   59.7551 C   0  0  0  0  0  0  0  0  0  0  0  0
   41.4938   12.4711   59.0086 C   0  0  0  0  0  0  0  0  0  0  0  0
   41.5059   11.6980   57.8438 C   0  0  0  0  0  0  0  0  0  0  0  0
   40.3330   11.0609   57.4057 C   0  0  0  0  0  0  0  0  0  0  0  0
   39.1536   11.1920   58.1575 C   0  0  0  0  0  0  0  0  0  0  0  0
   40.3438   10.1973   56.1710 C   0  0  0  0  0  0  0  0  0  0  0  0
   40.8415   10.9611   55.0304 N   0  0  0  0  0  0  0  0  0  0  0  0
   38.6049   11.7723   62.4591 O   0  0  0  0  0  0  0  0  0  0  0  0
   37.7267    9.8976   61.4777 O   0  0  0  0  0  0  0  0  0  0  0  0
   37.4380   13.4629   60.4276 C   0  0  0  0  0  0  0  0  0  0  0  0
   34.7487   13.3456   60.0006 O   0  0  0  0  0  0  0  0  0  0  0  0
   35.5455   12.4245   62.3108 O   0  0  0  0  0  0  0  0  0  0  0  0
   35.4200   15.1982   61.9177 C   0  0  2  0  0  0  0  0  0  0  0  0
   35.0886   16.3282   60.9098 C   0  0  0  0  0  0  0  0  0  0  0  0
   34.5340   17.5455   61.6644 C   0  0  0  0  0  0  0  0  0  0  0  0
   36.2864   16.7628   60.0450 C   0  0  0  0  0  0  0  0  0  0  0  0
   36.5538   15.6061   62.7646 N   0  0  0  0  0  0  0  0  0  0  0  0
   34.9026   15.1368   64.8363 O   0  0  0  0  0  0  0  0  0  0  0  0
   36.2973   15.5673   64.4775 S   0  0  0  0  0  0  0  0  0  0  0  0
   37.5020   14.4517   65.2013 C   0  0  0  0  0  0  0  0  0  0  0  0
   36.5363   16.9576   64.9921 O   0  0  0  0  0  0  0  0  0  0  0  0
   38.1425   13.5400   64.1477 C   0  0  0  0  0  0  0  0  0  0  0  0
   38.9928   12.4226   64.7827 C   0  0  0  0  0  0  0  0  0  0  0  0
   38.8559   12.3667   66.2933 C   0  0  0  0  0  0  0  0  0  0  0  0
   37.6617   11.9093   66.8838 C   0  0  0  0  0  0  0  0  0  0  0  0
   37.5367   11.8494   68.2785 C   0  0  0  0  0  0  0  0  0  0  0  0
   39.9220   12.7594   67.1259 C   0  0  0  0  0  0  0  0  0  0  0  0
   39.7940   12.6945   68.5203 C   0  0  0  0  0  0  0  0  0  0  0  0
   38.6023   12.2409   69.0961 C   0  0  0  0  0  0  0  0  0  0  0  0
   37.0404   11.5190   59.6173 H   0  0  0  0  0  0  0  0  0  0  0  0
   40.3414   13.1766   60.6698 H   0  0  0  0  0  0  0  0  0  0  0  0
   42.4005   12.9595   59.3416 H   0  0  0  0  0  0  0  0  0  0  0  0
   42.4282   11.5953   57.2857 H   0  0  0  0  0  0  0  0  0  0  0  0
   38.2572   10.6786   57.8302 H   0  0  0  0  0  0  0  0  0  0  0  0
   40.9856    9.3034   56.3390 H   0  0  0  0  0  0  0  0  0  0  0  0
   39.3170    9.8314   55.9496 H   0  0  0  0  0  0  0  0  0  0  0  0
   41.8647   11.1297   55.1686 H   0  0  0  0  0  0  0  0  0  0  0  0
   40.7539   10.3575   54.1810 H   0  0  0  0  0  0  0  0  0  0  0  0
   37.8689    9.3421   62.3127 H   0  0  0  0  0  0  0  0  0  0  0  0
   38.1786   13.9669   61.0724 H   0  0  0  0  0  0  0  0  0  0  0  0
   37.4458   13.9826   59.4501 H   0  0  0  0  0  0  0  0  0  0  0  0
   34.5953   12.4947   62.5808 H   0  0  0  0  0  0  0  0  0  0  0  0
   34.5028   15.0393   62.5197 H   0  0  0  0  0  0  0  0  0  0  0  0
   34.2829   15.9735   60.2295 H   0  0  0  0  0  0  0  0  0  0  0  0
   35.3076   17.9857   62.3297 H   0  0  0  0  0  0  0  0  0  0  0  0
   34.1993   18.3240   60.9458 H   0  0  0  0  0  0  0  0  0  0  0  0
   33.6550   17.2556   62.2789 H   0  0  0  0  0  0  0  0  0  0  0  0
   36.0666   17.7244   59.5336 H   0  0  0  0  0  0  0  0  0  0  0  0
   36.4663   16.0282   59.2408 H   0  0  0  0  0  0  0  0  0  0  0  0
   37.2082   16.8975   60.6481 H   0  0  0  0  0  0  0  0  0  0  0  0
   37.4299   15.0844   62.5674 H   0  0  0  0  0  0  0  0  0  0  0  0
   36.9791   13.8399   65.9663 H   0  0  0  0  0  0  0  0  0  0  0  0
   38.2884   15.0496   65.7095 H   0  0  0  0  0  0  0  0  0  0  0  0
   38.7940   14.1576   63.4921 H   0  0  0  0  0  0  0  0  0  0  0  0
   37.3554   13.0865   63.5073 H   0  0  0  0  0  0  0  0  0  0  0  0
   38.6625   11.4469   64.3648 H   0  0  0  0  0  0  0  0  0  0  0  0
   40.0571   12.5513   64.4867 H   0  0  0  0  0  0  0  0  0  0  0  0
   36.8307   11.5974   66.2633 H   0  0  0  0  0  0  0  0  0  0  0  0
   36.6152   11.4973   68.7238 H   0  0  0  0  0  0  0  0  0  0  0  0
   40.8495   13.1167   66.6962 H   0  0  0  0  0  0  0  0  0  0  0  0
   40.6180   12.9983   69.1530 H   0  0  0  0  0  0  0  0  0  0  0  0
   38.5049   12.1929   70.1729 H   0  0  0  0  0  0  0  0  0  0  0  0
  3  2  1  0
  4  2  1  0
  5  4  2  0
  6  5  1  0
  7  6  2  0
  8  7  1  0
  9  8  2  0
  9  4  1  0
 10  8  1  0
 11 10  1  0
 12  3  2  0
 13  3  1  0
  2 14  1  0
 14  1  1  0
 15  1  2  0
  1 16  1  1
 17  1  1  0
 18 17  1  0
 18 19  1  0
 20 18  1  0
 17 21  1  0
 23 22  2  0
 23 21  1  0
 23 24  1  0
 25 23  2  0
 26 24  1  0
 27 26  1  0
 28 27  1  0
 29 28  2  0
 30 29  1  0
 31 28  1  0
 32 31  2  0
 33 32  1  0
 33 30  2  0
  2 34  1  6
  5 35  1  0
  6 36  1  0
  7 37  1  0
  9 38  1  0
 10 39  1  0
 10 40  1  0
 11 41  1  0
 11 42  1  0
 13 43  1  0
 14 44  1  0
 14 45  1  0
 16 46  1  0
 17 47  1  1
 18 48  1  0
 19 49  1  0
 19 50  1  0
 19 51  1  0
 20 52  1  0
 20 53  1  0
 20 54  1  0
 21 55  1  0
 24 56  1  0
 24 57  1  0
 26 58  1  0
 26 59  1  0
 27 60  1  0
 27 61  1  0
 29 62  1  0
 30 63  1  0
 31 64  1  0
 32 65  1  0
 33 66  1  0
M  END
