
     RDKit          3D

 28 25  0  0  0  0  0  0  0  0999 V2000
    3.4152   -0.9244    7.1321 C   0  0  0  0  0  0  0  0  0  0  0  0
    4.3111   -1.0184    6.0353 N   0  0  0  0  0  0  0  0  0  0  0  0
    2.8406    0.3310    7.4506 N   0  0  0  0  0  0  0  0  0  0  0  0
    3.0358   -2.2481    8.0266 S   0  0  0  0  0  0  0  0  0  0  0  0
   16.5931  -10.7165    4.4038 C   0  0  0  0  0  0  0  0  0  0  0  0
   16.7337  -12.0740    4.8922 N   0  0  0  0  0  0  0  0  0  0  0  0
   16.8549   -9.7468    5.4513 N   0  0  0  0  0  0  0  0  0  0  0  0
   14.9909  -10.4536    3.5914 S   0  0  0  0  0  0  0  0  0  0  0  0
    0.0844  -17.8183    5.4786 C   0  0  0  0  0  0  0  0  0  0  0  0
   -0.2212  -18.8431    4.4961 N   0  0  0  0  0  0  0  0  0  0  0  0
    0.0540  -18.3382    6.8336 N   0  0  0  0  0  0  0  0  0  0  0  0
    1.6534  -16.9853    5.1214 S   0  0  0  0  0  0  0  0  0  0  0  0
    4.1742   -0.4463    5.1725 H   0  0  0  0  0  0  0  0  0  0  0  0
    4.1742   -0.4463    5.1725 H   0  0  0  0  0  0  0  0  0  0  0  0
    3.1355    1.1977    6.9486 H   0  0  0  0  0  0  0  0  0  0  0  0
    3.1354    1.1977    6.9487 H   0  0  0  0  0  0  0  0  0  0  0  0
   17.3590  -10.5699    3.6108 H   0  0  0  0  0  0  0  0  0  0  0  0
   16.0621  -12.2185    5.6809 H   0  0  0  0  0  0  0  0  0  0  0  0
   17.6970  -12.1859    5.2848 H   0  0  0  0  0  0  0  0  0  0  0  0
   16.0877   -9.8023    6.1597 H   0  0  0  0  0  0  0  0  0  0  0  0
   16.8141   -8.7899    5.0308 H   0  0  0  0  0  0  0  0  0  0  0  0
   15.0790  -11.6337    2.8283 H   0  0  0  0  0  0  0  0  0  0  0  0
   -0.6985  -17.0319    5.4024 H   0  0  0  0  0  0  0  0  0  0  0  0
   -1.2584  -18.9705    4.4510 H   0  0  0  0  0  0  0  0  0  0  0  0
    0.1929  -19.7494    4.8137 H   0  0  0  0  0  0  0  0  0  0  0  0
   -0.2605  -19.3353    6.8059 H   0  0  0  0  0  0  0  0  0  0  0  0
   -0.6535  -17.8016    7.3864 H   0  0  0  0  0  0  0  0  0  0  0  0
    1.2210  -16.5501    3.8538 H   0  0  0  0  0  0  0  0  0  0  0  0
  2  1  1  0
  3  1  1  0
  4  1  2  0
  6  5  1  0
  7  5  1  0
  8  5  1  0
 10  9  1  0
 11  9  1  0
 12  9  1  0
  2 13  1  0
  2 14  1  0
  3 15  1  0
  3 16  1  0
  5 17  1  0
  6 18  1  0
  6 19  1  0
  7 20  1  0
  7 21  1  0
  8 22  1  0
  9 23  1  0
 10 24  1  0
 10 25  1  0
 11 26  1  0
 11 27  1  0
 12 28  1  0
M  END
