
     RDKit          3D

 97100  0  0  0  0  0  0  0  0999 V2000
   -9.6318  -27.9021  -36.4961 N   0  0  0  0  0  0  0  0  0  0  0  0
  -10.2848  -28.4437  -37.6726 C   0  0  2  0  0  0  0  0  0  0  0  0
   -9.2959  -29.3544  -38.4246 C   0  0  2  0  0  0  0  0  0  0  0  0
   -8.8298  -30.5340  -37.5261 C   0  0  0  0  0  0  0  0  0  0  0  0
   -8.4243  -31.7455  -38.3873 C   0  0  2  0  0  0  0  0  0  0  0  0
   -9.6570  -32.5088  -38.7550 C   0  0  0  0  0  0  0  0  0  0  0  0
  -10.8063  -27.2672  -38.5247 C   0  0  0  0  0  0  0  0  0  0  0  0
   -8.1614  -28.6191  -38.8281 O   0  0  0  0  0  0  0  0  0  0  0  0
   -7.2290  -32.6378  -37.9134 C   0  0  0  0  0  0  0  0  0  0  0  0
   -6.3009  -32.0971  -36.8358 C   0  0  0  0  0  0  0  0  0  0  0  0
   -7.4007  -34.1517  -37.9514 C   0  0  0  0  0  0  0  0  0  0  0  0
  -10.4522  -32.9081  -37.8609 O   0  0  0  0  0  0  0  0  0  0  0  0
  -11.6687  -26.4687  -37.7283 O   0  0  0  0  0  0  0  0  0  0  0  0
  -11.1245  -33.4998  -40.4973 C   0  0  0  0  0  0  0  0  0  0  0  0
  -10.9735  -34.2295  -41.8242 C   0  0  0  0  0  0  0  0  0  0  0  0
  -11.9872  -35.3536  -41.9646 C   0  0  0  0  0  0  0  0  0  0  0  0
   -9.5749  -34.5611  -42.3306 C   0  0  0  0  0  0  0  0  0  0  0  0
   -9.9466  -32.7394  -40.1285 N   0  0  0  0  0  0  0  0  0  0  0  0
   -9.4463  -27.5000  -34.0870 C   0  0  0  0  0  0  0  0  0  0  0  0
   -8.6621  -27.9548  -33.0298 C   0  0  0  0  0  0  0  0  0  0  0  0
   -8.2560  -27.0435  -32.0458 C   0  0  0  0  0  0  0  0  0  0  0  0
   -8.6226  -25.6922  -32.1249 C   0  0  0  0  0  0  0  0  0  0  0  0
   -9.3704  -25.2459  -33.2058 C   0  0  0  0  0  0  0  0  0  0  0  0
   -9.7924  -26.1577  -34.1683 C   0  0  0  0  0  0  0  0  0  0  0  0
   -9.8913  -28.3535  -35.1720 C   0  0  0  0  0  0  0  0  0  0  0  0
   -9.8593  -23.8743  -33.3039 C   0  0  0  0  0  0  0  0  0  0  0  0
   -7.4538  -27.4828  -30.9646 N   0  0  0  0  0  0  0  0  0  0  0  0
   -7.9194  -28.5440  -30.0849 C   0  0  0  0  0  0  0  0  0  0  0  0
   -5.7974  -27.0564  -30.9840 S   0  0  0  0  0  0  0  0  0  0  0  0
   -4.9111  -28.0838  -32.1069 C   0  0  0  0  0  0  0  0  0  0  0  0
   -9.1036  -22.8820  -33.1376 O   0  0  0  0  0  0  0  0  0  0  0  0
  -10.5660  -29.3929  -34.9472 O   0  0  0  0  0  0  0  0  0  0  0  0
   -5.2280  -27.2386  -29.6123 O   0  0  0  0  0  0  0  0  0  0  0  0
   -5.6607  -25.6310  -31.4157 O   0  0  0  0  0  0  0  0  0  0  0  0
  -11.2414  -23.7261  -33.5817 N   0  0  0  0  0  0  0  0  0  0  0  0
  -11.9136  -22.5556  -34.1117 C   0  0  1  0  0  0  0  0  0  0  0  0
  -12.7151  -23.0339  -35.3006 C   0  0  0  0  0  0  0  0  0  0  0  0
  -12.6999  -24.3622  -37.3534 C   0  0  0  0  0  0  0  0  0  0  0  0
  -14.0947  -24.2341  -37.4263 C   0  0  0  0  0  0  0  0  0  0  0  0
  -14.7958  -23.5193  -36.4491 C   0  0  0  0  0  0  0  0  0  0  0  0
  -14.1166  -22.9336  -35.3806 C   0  0  0  0  0  0  0  0  0  0  0  0
  -12.0207  -23.7513  -36.2943 C   0  0  0  0  0  0  0  0  0  0  0  0
  -11.9433  -25.2212  -38.3404 C   0  0  0  0  0  0  0  0  0  0  0  0
  -12.7474  -21.9266  -33.0149 C   0  0  0  0  0  0  0  0  0  0  0  0
  -13.3185  -22.7020  -31.9802 C   0  0  0  0  0  0  0  0  0  0  0  0
  -14.0575  -22.0948  -30.9667 C   0  0  0  0  0  0  0  0  0  0  0  0
  -14.2613  -20.7156  -30.9848 C   0  0  0  0  0  0  0  0  0  0  0  0
  -13.7270  -19.9425  -32.0182 C   0  0  0  0  0  0  0  0  0  0  0  0
  -12.9766  -20.5435  -33.0314 C   0  0  0  0  0  0  0  0  0  0  0  0
   -8.8969  -27.1701  -36.6366 H   0  0  0  0  0  0  0  0  0  0  0  0
  -11.1707  -29.0501  -37.3768 H   0  0  0  0  0  0  0  0  0  0  0  0
   -9.8460  -29.7456  -39.3148 H   0  0  0  0  0  0  0  0  0  0  0  0
   -9.6222  -30.8323  -36.8086 H   0  0  0  0  0  0  0  0  0  0  0  0
   -7.9912  -30.1653  -36.9043 H   0  0  0  0  0  0  0  0  0  0  0  0
   -8.0574  -31.3000  -39.3412 H   0  0  0  0  0  0  0  0  0  0  0  0
   -9.9355  -26.6788  -38.8953 H   0  0  0  0  0  0  0  0  0  0  0  0
  -11.3683  -27.6665  -39.3978 H   0  0  0  0  0  0  0  0  0  0  0  0
   -7.8763  -28.9761  -39.7090 H   0  0  0  0  0  0  0  0  0  0  0  0
   -6.5251  -32.5523  -38.7781 H   0  0  0  0  0  0  0  0  0  0  0  0
   -6.8432  -32.0442  -35.8684 H   0  0  0  0  0  0  0  0  0  0  0  0
   -5.9209  -31.0879  -37.1057 H   0  0  0  0  0  0  0  0  0  0  0  0
   -5.4202  -32.7620  -36.7027 H   0  0  0  0  0  0  0  0  0  0  0  0
   -6.5299  -34.6648  -37.4883 H   0  0  0  0  0  0  0  0  0  0  0  0
   -8.3140  -34.4629  -37.3993 H   0  0  0  0  0  0  0  0  0  0  0  0
   -7.4985  -34.4861  -39.0054 H   0  0  0  0  0  0  0  0  0  0  0  0
  -12.0025  -32.8171  -40.5297 H   0  0  0  0  0  0  0  0  0  0  0  0
  -11.3347  -34.2658  -39.7181 H   0  0  0  0  0  0  0  0  0  0  0  0
  -11.3195  -33.4786  -42.5718 H   0  0  0  0  0  0  0  0  0  0  0  0
  -11.9994  -35.7370  -43.0075 H   0  0  0  0  0  0  0  0  0  0  0  0
  -13.0094  -34.9943  -41.7158 H   0  0  0  0  0  0  0  0  0  0  0  0
  -11.7227  -36.1901  -41.2832 H   0  0  0  0  0  0  0  0  0  0  0  0
   -9.0602  -35.2201  -41.6000 H   0  0  0  0  0  0  0  0  0  0  0  0
   -8.9699  -33.6422  -42.4777 H   0  0  0  0  0  0  0  0  0  0  0  0
   -9.6301  -35.0880  -43.3072 H   0  0  0  0  0  0  0  0  0  0  0  0
   -9.4573  -32.1779  -40.8612 H   0  0  0  0  0  0  0  0  0  0  0  0
   -8.3664  -28.9955  -32.9733 H   0  0  0  0  0  0  0  0  0  0  0  0
   -8.3624  -25.0059  -31.3299 H   0  0  0  0  0  0  0  0  0  0  0  0
  -10.3985  -25.8171  -34.9995 H   0  0  0  0  0  0  0  0  0  0  0  0
   -7.0808  -29.2347  -29.8564 H   0  0  0  0  0  0  0  0  0  0  0  0
   -8.7427  -29.1159  -30.5648 H   0  0  0  0  0  0  0  0  0  0  0  0
   -8.3060  -28.1109  -29.1390 H   0  0  0  0  0  0  0  0  0  0  0  0
   -4.5714  -29.0096  -31.5993 H   0  0  0  0  0  0  0  0  0  0  0  0
   -5.5449  -28.3260  -32.9837 H   0  0  0  0  0  0  0  0  0  0  0  0
   -4.0157  -27.5357  -32.4659 H   0  0  0  0  0  0  0  0  0  0  0  0
  -11.8326  -24.5820  -33.4569 H   0  0  0  0  0  0  0  0  0  0  0  0
  -11.1551  -21.8237  -34.4695 H   0  0  0  0  0  0  0  0  0  0  0  0
  -14.6451  -24.7072  -38.2300 H   0  0  0  0  0  0  0  0  0  0  0  0
  -15.8734  -23.4385  -36.5113 H   0  0  0  0  0  0  0  0  0  0  0  0
  -14.6937  -22.4134  -34.6285 H   0  0  0  0  0  0  0  0  0  0  0  0
  -10.9428  -23.8482  -36.2367 H   0  0  0  0  0  0  0  0  0  0  0  0
  -11.0036  -24.6912  -38.6178 H   0  0  0  0  0  0  0  0  0  0  0  0
  -12.5464  -25.3734  -39.2633 H   0  0  0  0  0  0  0  0  0  0  0  0
  -13.2057  -23.7752  -31.9420 H   0  0  0  0  0  0  0  0  0  0  0  0
  -14.4832  -22.6941  -30.1721 H   0  0  0  0  0  0  0  0  0  0  0  0
  -14.8402  -20.2444  -30.2010 H   0  0  0  0  0  0  0  0  0  0  0  0
  -13.8938  -18.8732  -32.0328 H   0  0  0  0  0  0  0  0  0  0  0  0
  -12.5679  -19.9285  -33.8237 H   0  0  0  0  0  0  0  0  0  0  0  0
  2  1  1  0
  3  2  1  0
  4  3  1  0
  5  4  1  0
  6  5  1  0
  2  7  1  0
  3  8  1  0
  9  5  1  0
  9 10  1  0
 11  9  1  0
 12  6  2  0
 13  7  1  0
 15 14  1  0
 15 16  1  0
 17 15  1  0
 18 14  1  0
 18  6  1  0
 20 19  1  0
 21 20  2  0
 22 21  1  0
 23 22  2  0
 24 19  2  0
 24 23  1  0
 25 19  1  0
 25  1  1  0
 26 23  1  0
 27 21  1  0
 28 27  1  0
 29 27  1  0
 29 30  1  0
 31 26  2  0
 32 25  2  0
 33 29  2  0
 34 29  2  0
 35 26  1  0
 36 35  1  0
 37 36  1  0
 39 38  2  0
 40 39  1  0
 41 40  2  0
 41 37  1  0
 42 38  1  0
 42 37  2  0
 43 38  1  0
 43 13  1  0
 36 44  1  0
 45 44  2  0
 46 45  1  0
 47 46  2  0
 48 47  1  0
 49 44  1  0
 49 48  2  0
  1 50  1  0
  2 51  1  1
  3 52  1  6
  4 53  1  0
  4 54  1  0
  5 55  1  6
  7 56  1  0
  7 57  1  0
  8 58  1  0
  9 59  1  0
 10 60  1  0
 10 61  1  0
 10 62  1  0
 11 63  1  0
 11 64  1  0
 11 65  1  0
 14 66  1  0
 14 67  1  0
 15 68  1  0
 16 69  1  0
 16 70  1  0
 16 71  1  0
 17 72  1  0
 17 73  1  0
 17 74  1  0
 18 75  1  0
 20 76  1  0
 22 77  1  0
 24 78  1  0
 28 79  1  0
 28 80  1  0
 28 81  1  0
 30 82  1  0
 30 83  1  0
 30 84  1  0
 35 85  1  0
 36 86  1  6
 39 87  1  0
 40 88  1  0
 41 89  1  0
 42 90  1  0
 43 91  1  0
 43 92  1  0
 45 93  1  0
 46 94  1  0
 47 95  1  0
 48 96  1  0
 49 97  1  0
M  END
