
     RDKit          3D

 16 15  0  0  0  0  0  0  0  0999 V2000
   43.5345   36.0065   21.4283 P   0  0  0  0  0  0  0  0  0  0  0  0
   43.5988   37.4773   22.2838 O   0  0  0  0  0  0  0  0  0  0  0  0
   44.1986   36.1567   20.0798 O   0  0  0  0  0  0  0  0  0  0  0  0
   44.3353   34.8374   22.3254 O   0  0  0  0  0  0  0  0  0  0  0  0
   41.9297   35.5397   21.2348 O   0  0  0  0  0  0  0  0  0  0  0  0
   43.3579   37.3042   24.7003 C   0  0  0  0  0  0  0  0  0  0  0  0
   44.5146   36.8047   24.7753 O   0  0  0  0  0  0  0  0  0  0  0  0
   42.6656   37.4355   23.3605 C   0  0  1  0  0  0  0  0  0  0  0  0
   42.6562   37.5560   25.8689 O   0  0  0  0  0  0  0  0  0  0  0  0
   41.7037   38.6087   23.2663 C   0  0  0  0  0  0  0  0  0  0  0  0
   40.4834   38.4770   23.2732 O   0  0  0  0  0  0  0  0  0  0  0  0
   43.6162   34.3320   22.7818 H   0  0  0  0  0  0  0  0  0  0  0  0
   41.9742   34.5850   20.9750 H   0  0  0  0  0  0  0  0  0  0  0  0
   41.9896   36.5477   23.3278 H   0  0  0  0  0  0  0  0  0  0  0  0
   43.0850   38.0607   26.6356 H   0  0  0  0  0  0  0  0  0  0  0  0
   42.1139   39.6101   23.1776 H   0  0  0  0  0  0  0  0  0  0  0  0
  2  1  1  0
  3  1  2  0
  4  1  1  0
  5  1  1  0
  7  6  2  0
  8  6  1  0
  8  2  1  0
  9  6  1  0
 10  8  1  0
 11 10  2  0
  4 12  1  0
  5 13  1  0
  8 14  1  6
  9 15  1  0
 10 16  1  0
M  END
