
     RDKit          3D

 26 27  0  0  0  0  0  0  0  0999 V2000
   -3.0732    8.6152   15.6024 C   0  0  0  0  0  0  0  0  0  0  0  0
   -3.4771    8.4113   14.2839 C   0  0  0  0  0  0  0  0  0  0  0  0
   -3.0848    7.5504   16.5126 C   0  0  0  0  0  0  0  0  0  0  0  0
   -3.9049    2.2036   11.8727 C   0  0  0  0  0  0  0  0  0  0  0  0
   -3.8960    7.1416   13.8862 C   0  0  0  0  0  0  0  0  0  0  0  0
   -3.5145    6.2802   16.1219 C   0  0  0  0  0  0  0  0  0  0  0  0
   -4.4881    3.0063   12.8520 C   0  0  0  0  0  0  0  0  0  0  0  0
   -2.6195    2.4861   11.4168 C   0  0  0  0  0  0  0  0  0  0  0  0
   -2.4869    4.3699   12.9426 C   0  0  0  0  0  0  0  0  0  0  0  0
   -0.5478    3.8104   11.5084 C   0  0  0  0  0  0  0  0  0  0  0  0
   -3.9150    6.0758   14.8021 C   0  0  0  0  0  0  0  0  0  0  0  0
   -3.7855    4.0863   13.3888 C   0  0  0  0  0  0  0  0  0  0  0  0
   -1.9087    3.5683   11.9512 C   0  0  0  0  0  0  0  0  0  0  0  0
   -0.2750    3.8240   10.2790 O   0  0  0  0  0  0  0  0  0  0  0  0
    0.4529    3.9965   12.4443 O   0  0  0  0  0  0  0  0  0  0  0  0
   -4.3738    4.8256   14.4099 O   0  0  0  0  0  0  0  0  0  0  0  0
   -2.7458    9.5961   15.9218 H   0  0  0  0  0  0  0  0  0  0  0  0
   -3.4689    9.2307   13.5768 H   0  0  0  0  0  0  0  0  0  0  0  0
   -2.7679    7.7167   17.5341 H   0  0  0  0  0  0  0  0  0  0  0  0
   -4.4514    1.3624   11.4661 H   0  0  0  0  0  0  0  0  0  0  0  0
   -4.2225    6.9883   12.8654 H   0  0  0  0  0  0  0  0  0  0  0  0
   -3.5333    5.4662   16.8354 H   0  0  0  0  0  0  0  0  0  0  0  0
   -5.4855    2.7793   13.2064 H   0  0  0  0  0  0  0  0  0  0  0  0
   -2.1796    1.8455   10.6620 H   0  0  0  0  0  0  0  0  0  0  0  0
   -1.9309    5.1915   13.3774 H   0  0  0  0  0  0  0  0  0  0  0  0
    0.6020    3.3235   13.1867 H   0  0  0  0  0  0  0  0  0  0  0  0
  2  1  2  0
  3  1  1  0
  5  2  1  0
  6  3  2  0
  7  4  2  0
  8  4  1  0
 11  5  2  0
 11  6  1  0
 12  9  2  0
 12  7  1  0
 13 10  1  0
 13  9  1  0
 13  8  2  0
 14 10  2  0
 15 10  1  0
 16 12  1  0
 16 11  1  0
  1 17  1  0
  2 18  1  0
  3 19  1  0
  4 20  1  0
  5 21  1  0
  6 22  1  0
  7 23  1  0
  8 24  1  0
  9 25  1  0
 15 26  1  0
M  END
