
     RDKit          3D

 34 36  0  0  0  0  0  0  0  0999 V2000
   35.7894   34.0218   -5.4925 C   0  0  0  0  0  0  0  0  0  0  0  0
   35.3895   32.8077   -5.0177 C   0  0  0  0  0  0  0  0  0  0  0  0
   35.3182   32.3569   -3.6410 C   0  0  0  0  0  0  0  0  0  0  0  0
   36.1711   35.2096   -4.7469 C   0  0  0  0  0  0  0  0  0  0  0  0
   34.6488   31.1683   -3.3201 C   0  0  0  0  0  0  0  0  0  0  0  0
   35.9687   33.0898   -2.6445 C   0  0  0  0  0  0  0  0  0  0  0  0
   34.5690   30.7635   -1.9900 C   0  0  0  0  0  0  0  0  0  0  0  0
   35.6552   33.9302   -6.8606 C   0  0  0  0  0  0  0  0  0  0  0  0
   35.1847   31.5133   -0.9822 C   0  0  0  0  0  0  0  0  0  0  0  0
   35.9350   32.6576   -1.3130 C   0  0  0  0  0  0  0  0  0  0  0  0
   37.2466   36.8883   -4.0258 C   0  0  0  0  0  0  0  0  0  0  0  0
   35.4955   35.7118   -3.6668 C   0  0  0  0  0  0  0  0  0  0  0  0
   36.7913   33.3528   -0.2830 C   0  0  0  0  0  0  0  0  0  0  0  0
   38.0987   32.5904   -0.0671 C   0  0  0  0  0  0  0  0  0  0  0  0
   35.0195   32.0271   -6.1092 N   0  0  0  0  0  0  0  0  0  0  0  0
   37.2775   35.9393   -4.9824 N   0  0  0  0  0  0  0  0  0  0  0  0
   35.1823   32.7209   -7.2461 N   0  0  0  0  0  0  0  0  0  0  0  0
   36.1774   36.7723   -3.2184 N   0  0  0  0  0  0  0  0  0  0  0  0
   34.0435   30.3785   -4.2964 O   0  0  0  0  0  0  0  0  0  0  0  0
   35.0426   31.1286    0.3471 O   0  0  0  0  0  0  0  0  0  0  0  0
   36.5347   33.9749   -2.9128 H   0  0  0  0  0  0  0  0  0  0  0  0
   34.0189   29.8656   -1.7370 H   0  0  0  0  0  0  0  0  0  0  0  0
   35.8645   34.7276   -7.5612 H   0  0  0  0  0  0  0  0  0  0  0  0
   38.0001   37.6575   -3.9200 H   0  0  0  0  0  0  0  0  0  0  0  0
   34.5786   35.3384   -3.2296 H   0  0  0  0  0  0  0  0  0  0  0  0
   37.0235   34.3919   -0.6036 H   0  0  0  0  0  0  0  0  0  0  0  0
   36.2430   33.4241    0.6809 H   0  0  0  0  0  0  0  0  0  0  0  0
   38.9237   33.2940    0.1744 H   0  0  0  0  0  0  0  0  0  0  0  0
   37.9848   31.8604    0.7626 H   0  0  0  0  0  0  0  0  0  0  0  0
   38.3637   32.0380   -0.9931 H   0  0  0  0  0  0  0  0  0  0  0  0
   34.8866   31.8068   -6.8105 H   0  0  0  0  0  0  0  0  0  0  0  0
   35.9324   37.3809   -2.4064 H   0  0  0  0  0  0  0  0  0  0  0  0
   33.9733   30.6510   -5.2684 H   0  0  0  0  0  0  0  0  0  0  0  0
   35.0046   30.1529    0.6182 H   0  0  0  0  0  0  0  0  0  0  0  0
  2  1  1  0
  3  2  1  0
  4  1  1  0
  5  3  2  0
  6  3  1  0
  7  5  1  0
  8  1  2  0
  9  7  2  0
 10  9  1  0
 10  6  2  0
 12  4  2  0
 13 10  1  0
 14 13  1  0
 15  2  2  0
 16 11  2  0
 16  4  1  0
 17 15  1  0
 17  8  1  0
 18 12  1  0
 18 11  1  0
 19  5  1  0
 20  9  1  0
  6 21  1  0
  7 22  1  0
  8 23  1  0
 11 24  1  0
 12 25  1  0
 13 26  1  0
 13 27  1  0
 14 28  1  0
 14 29  1  0
 14 30  1  0
 17 31  1  0
 18 32  1  0
 19 33  1  0
 20 34  1  0
M  END
