
     RDKit          3D

 51 51  0  0  0  0  0  0  0  0999 V2000
   75.6216   27.4219   13.5693 C   0  0  0  0  0  0  0  0  0  0  0  0
   80.5413   31.1664   14.8940 C   0  0  1  0  0  0  0  0  0  0  0  0
   78.8133   33.4415   17.1748 C   0  0  0  0  0  0  0  0  0  0  0  0
   76.9954   27.6116   14.2354 C   0  0  0  0  0  0  0  0  0  0  0  0
   81.8243   31.2088   14.0649 C   0  0  0  0  0  0  0  0  0  0  0  0
   77.5908   28.9490   13.8016 C   0  0  0  0  0  0  0  0  0  0  0  0
   82.5978   29.5588   13.9482 S   0  0  0  0  0  0  0  0  0  0  0  0
   78.6946   29.4520   14.6745 C   0  0  0  0  0  0  0  0  0  0  0  0
   78.8407   29.0641   15.8654 O   0  0  0  0  0  0  0  0  0  0  0  0
   88.5659   25.7316   16.6801 C   0  0  0  0  0  0  0  0  0  0  0  0
   85.8095   29.5166   15.2454 C   0  0  0  0  0  0  0  0  0  0  0  0
   87.0346   28.8508   15.3317 C   0  0  0  0  0  0  0  0  0  0  0  0
   87.0943   27.5466   15.8369 C   0  0  0  0  0  0  0  0  0  0  0  0
   88.3422   26.9259   15.9403 O   0  0  0  0  0  0  0  0  0  0  0  0
   85.9095   26.9016   16.2348 C   0  0  0  0  0  0  0  0  0  0  0  0
   84.6866   27.5605   16.1366 C   0  0  0  0  0  0  0  0  0  0  0  0
   84.6299   28.8733   15.6528 C   0  0  0  0  0  0  0  0  0  0  0  0
   75.1445   26.0456   13.6831 N   0  0  0  0  0  0  0  0  0  0  0  0
   80.0617   32.5505   15.1737 C   0  0  0  0  0  0  0  0  0  0  0  0
   79.5183   30.4729   14.1376 N   0  0  0  0  0  0  0  0  0  0  0  0
   79.6994   33.2973   14.2235 O   0  0  0  0  0  0  0  0  0  0  0  0
   78.4794   32.5242   18.2981 C   0  0  0  0  0  0  0  0  0  0  0  0
   80.0377   33.0174   16.5175 N   0  0  0  0  0  0  0  0  0  0  0  0
   77.4866   32.7336   19.0452 O   0  0  0  0  0  0  0  0  0  0  0  0
   79.3002   31.4383   18.5260 O   0  0  0  0  0  0  0  0  0  0  0  0
   83.3221   29.5987   15.6206 C   0  0  0  0  0  0  0  0  0  0  0  0
   74.8800   28.1043   14.0392 H   0  0  0  0  0  0  0  0  0  0  0  0
   75.6839   27.6805   12.4890 H   0  0  0  0  0  0  0  0  0  0  0  0
   80.7406   30.6444   15.8522 H   0  0  0  0  0  0  0  0  0  0  0  0
   78.9583   34.4668   17.5763 H   0  0  0  0  0  0  0  0  0  0  0  0
   77.9560   33.4719   16.4698 H   0  0  0  0  0  0  0  0  0  0  0  0
   76.8541   27.5802   15.3378 H   0  0  0  0  0  0  0  0  0  0  0  0
   77.6882   26.7927   13.9423 H   0  0  0  0  0  0  0  0  0  0  0  0
   81.6000   31.5551   13.0328 H   0  0  0  0  0  0  0  0  0  0  0  0
   82.5429   31.9427   14.4893 H   0  0  0  0  0  0  0  0  0  0  0  0
   77.9610   28.8503   12.7574 H   0  0  0  0  0  0  0  0  0  0  0  0
   76.7986   29.7298   13.8056 H   0  0  0  0  0  0  0  0  0  0  0  0
   89.6521   25.5072   16.6839 H   0  0  0  0  0  0  0  0  0  0  0  0
   88.0339   24.8808   16.2048 H   0  0  0  0  0  0  0  0  0  0  0  0
   88.2261   25.8604   17.7299 H   0  0  0  0  0  0  0  0  0  0  0  0
   85.7793   30.5319   14.8696 H   0  0  0  0  0  0  0  0  0  0  0  0
   87.9415   29.3541   15.0214 H   0  0  0  0  0  0  0  0  0  0  0  0
   85.9215   25.8919   16.6212 H   0  0  0  0  0  0  0  0  0  0  0  0
   83.7848   27.0504   16.4527 H   0  0  0  0  0  0  0  0  0  0  0  0
   74.5161   25.9749   14.5163 H   0  0  0  0  0  0  0  0  0  0  0  0
   74.5745   25.8180   12.8360 H   0  0  0  0  0  0  0  0  0  0  0  0
   79.3189   30.8044   13.1649 H   0  0  0  0  0  0  0  0  0  0  0  0
   80.9255   33.0501   17.0687 H   0  0  0  0  0  0  0  0  0  0  0  0
   79.4574   31.0932   19.4654 H   0  0  0  0  0  0  0  0  0  0  0  0
   82.6080   29.1343   16.3332 H   0  0  0  0  0  0  0  0  0  0  0  0
   83.4961   30.6397   15.9657 H   0  0  0  0  0  0  0  0  0  0  0  0
  4  1  1  0
  2  5  1  0
  6  4  1  0
  7  5  1  0
  8  6  1  0
  9  8  2  0
 12 11  2  0
 13 12  1  0
 14 13  1  0
 14 10  1  0
 15 13  2  0
 16 15  1  0
 17 16  2  0
 17 11  1  0
 18  1  1  0
 19  2  1  0
 20  8  1  0
 20  2  1  0
 21 19  2  0
 22  3  1  0
 23 19  1  0
 23  3  1  0
 24 22  2  0
 25 22  1  0
 26 17  1  0
 26  7  1  0
  1 27  1  0
  1 28  1  0
  2 29  1  1
  3 30  1  0
  3 31  1  0
  4 32  1  0
  4 33  1  0
  5 34  1  0
  5 35  1  0
  6 36  1  0
  6 37  1  0
 10 38  1  0
 10 39  1  0
 10 40  1  0
 11 41  1  0
 12 42  1  0
 15 43  1  0
 16 44  1  0
 18 45  1  0
 18 46  1  0
 20 47  1  0
 23 48  1  0
 25 49  1  0
 26 50  1  0
 26 51  1  0
M  END
