
     RDKit          3D

 51 51  0  0  0  0  0  0  0  0999 V2000
   76.0801   26.8574   13.9851 C   0  0  0  0  0  0  0  0  0  0  0  0
   80.7846   30.9888   14.7005 C   0  0  1  0  0  0  0  0  0  0  0  0
   80.2745   34.7954   14.2334 C   0  0  0  0  0  0  0  0  0  0  0  0
   77.5194   27.1257   14.4580 C   0  0  0  0  0  0  0  0  0  0  0  0
   82.0506   31.0477   13.8464 C   0  0  0  0  0  0  0  0  0  0  0  0
   78.0035   28.4558   13.8853 C   0  0  0  0  0  0  0  0  0  0  0  0
   83.0513   29.5315   14.0316 S   0  0  0  0  0  0  0  0  0  0  0  0
   79.0750   29.1248   14.6838 C   0  0  0  0  0  0  0  0  0  0  0  0
   79.2650   28.8679   15.9035 O   0  0  0  0  0  0  0  0  0  0  0  0
   88.9913   26.5425   17.7071 C   0  0  0  0  0  0  0  0  0  0  0  0
   86.2497   29.8297   15.3282 C   0  0  0  0  0  0  0  0  0  0  0  0
   87.4738   29.2110   15.5933 C   0  0  0  0  0  0  0  0  0  0  0  0
   87.5284   28.0788   16.4147 C   0  0  0  0  0  0  0  0  0  0  0  0
   88.7751   27.5081   16.6852 O   0  0  0  0  0  0  0  0  0  0  0  0
   86.3396   27.5535   16.9523 C   0  0  0  0  0  0  0  0  0  0  0  0
   85.1178   28.1624   16.6773 C   0  0  0  0  0  0  0  0  0  0  0  0
   85.0659   29.3084   15.8745 C   0  0  0  0  0  0  0  0  0  0  0  0
   75.6741   25.4750   14.2275 N   0  0  0  0  0  0  0  0  0  0  0  0
   80.2019   32.3528   14.8541 C   0  0  0  0  0  0  0  0  0  0  0  0
   79.8101   30.1483   14.0347 N   0  0  0  0  0  0  0  0  0  0  0  0
   79.2316   32.5403   15.6383 O   0  0  0  0  0  0  0  0  0  0  0  0
   81.2758   35.6162   14.9674 C   0  0  0  0  0  0  0  0  0  0  0  0
   80.7419   33.4269   14.0930 N   0  0  0  0  0  0  0  0  0  0  0  0
   82.2554   35.0864   15.5567 O   0  0  0  0  0  0  0  0  0  0  0  0
   81.0979   36.9840   15.0127 O   0  0  0  0  0  0  0  0  0  0  0  0
   83.7586   29.9983   15.6457 C   0  0  0  0  0  0  0  0  0  0  0  0
   75.3791   27.5406   14.5126 H   0  0  0  0  0  0  0  0  0  0  0  0
   75.9944   27.0593   12.8944 H   0  0  0  0  0  0  0  0  0  0  0  0
   81.0355   30.5799   15.7006 H   0  0  0  0  0  0  0  0  0  0  0  0
   80.1238   35.2286   13.2219 H   0  0  0  0  0  0  0  0  0  0  0  0
   79.3048   34.8468   14.7719 H   0  0  0  0  0  0  0  0  0  0  0  0
   77.5210   27.1494   15.5695 H   0  0  0  0  0  0  0  0  0  0  0  0
   78.1999   26.3143   14.1187 H   0  0  0  0  0  0  0  0  0  0  0  0
   81.7817   31.1510   12.7728 H   0  0  0  0  0  0  0  0  0  0  0  0
   82.6564   31.9436   14.1022 H   0  0  0  0  0  0  0  0  0  0  0  0
   78.3679   28.2839   12.8485 H   0  0  0  0  0  0  0  0  0  0  0  0
   77.1529   29.1703   13.8291 H   0  0  0  0  0  0  0  0  0  0  0  0
   90.0775   26.3291   17.7786 H   0  0  0  0  0  0  0  0  0  0  0  0
   88.4642   25.5972   17.4591 H   0  0  0  0  0  0  0  0  0  0  0  0
   88.6409   26.9336   18.6860 H   0  0  0  0  0  0  0  0  0  0  0  0
   86.2233   30.7156   14.7057 H   0  0  0  0  0  0  0  0  0  0  0  0
   88.3838   29.6209   15.1739 H   0  0  0  0  0  0  0  0  0  0  0  0
   86.3477   26.6755   17.5833 H   0  0  0  0  0  0  0  0  0  0  0  0
   84.2128   27.7474   17.1041 H   0  0  0  0  0  0  0  0  0  0  0  0
   74.7289   25.4753   14.6754 H   0  0  0  0  0  0  0  0  0  0  0  0
   75.5884   24.9853   13.3072 H   0  0  0  0  0  0  0  0  0  0  0  0
   79.5738   30.3666   13.0385 H   0  0  0  0  0  0  0  0  0  0  0  0
   81.5133   33.2408   13.4123 H   0  0  0  0  0  0  0  0  0  0  0  0
   81.7523   37.5774   15.5088 H   0  0  0  0  0  0  0  0  0  0  0  0
   83.0373   29.7289   16.4460 H   0  0  0  0  0  0  0  0  0  0  0  0
   83.9291   31.0932   15.7157 H   0  0  0  0  0  0  0  0  0  0  0  0
  4  1  1  0
  2  5  1  0
  6  4  1  0
  7  5  1  0
  8  6  1  0
  9  8  2  0
 12 11  2  0
 13 12  1  0
 14 13  1  0
 14 10  1  0
 15 13  2  0
 16 15  1  0
 17 16  2  0
 17 11  1  0
 18  1  1  0
 19  2  1  0
 20  8  1  0
 20  2  1  0
 21 19  2  0
 22  3  1  0
 23 19  1  0
 23  3  1  0
 24 22  2  0
 25 22  1  0
 26 17  1  0
 26  7  1  0
  1 27  1  0
  1 28  1  0
  2 29  1  1
  3 30  1  0
  3 31  1  0
  4 32  1  0
  4 33  1  0
  5 34  1  0
  5 35  1  0
  6 36  1  0
  6 37  1  0
 10 38  1  0
 10 39  1  0
 10 40  1  0
 11 41  1  0
 12 42  1  0
 15 43  1  0
 16 44  1  0
 18 45  1  0
 18 46  1  0
 20 47  1  0
 23 48  1  0
 25 49  1  0
 26 50  1  0
 26 51  1  0
M  END
