
     RDKit          3D

 32 31  0  0  0  0  0  0  0  0999 V2000
    7.6555  -15.4355   40.6363 N   0  0  0  0  0  0  0  0  0  0  0  0
    7.5504  -18.3845   40.5011 C   0  0  0  0  0  0  0  0  0  0  0  0
    7.3178  -19.5802   40.7999 O   0  0  0  0  0  0  0  0  0  0  0  0
    8.2683  -14.1131   38.8223 O   0  0  0  0  0  0  0  0  0  0  0  0
    5.1161  -15.3766   39.6578 O   0  0  0  0  0  0  0  0  0  0  0  0
    6.9048  -17.8296   39.4130 O   0  0  0  0  0  0  0  0  0  0  0  0
    5.6521  -13.9373   37.7843 C   0  0  0  0  0  0  0  0  0  0  0  0
    4.1249  -13.9044   37.5479 C   0  0  0  0  0  0  0  0  0  0  0  0
    3.5145  -12.9344   38.3608 O   0  0  0  0  0  0  0  0  0  0  0  0
    6.2853  -14.9937   36.8480 C   0  0  0  0  0  0  0  0  0  0  0  0
    6.2287  -12.5477   37.4414 C   0  0  0  0  0  0  0  0  0  0  0  0
    5.9126  -14.2769   39.2767 C   0  0  2  0  0  0  0  0  0  0  0  0
    7.3551  -14.5756   39.5569 C   0  0  0  0  0  0  0  0  0  0  0  0
    8.8750  -16.2134   40.7636 C   0  0  0  0  0  0  0  0  0  0  0  0
    8.5484  -17.6050   41.3147 C   0  0  0  0  0  0  0  0  0  0  0  0
    6.9137  -15.5352   41.3573 H   0  0  0  0  0  0  0  0  0  0  0  0
    4.2895  -15.0079   40.0669 H   0  0  0  0  0  0  0  0  0  0  0  0
    6.7544  -16.8298   39.3488 H   0  0  0  0  0  0  0  0  0  0  0  0
    3.6734  -14.9108   37.7169 H   0  0  0  0  0  0  0  0  0  0  0  0
    3.9144  -13.6461   36.4872 H   0  0  0  0  0  0  0  0  0  0  0  0
    3.1267  -13.4087   39.1420 H   0  0  0  0  0  0  0  0  0  0  0  0
    6.8212  -14.5125   36.0026 H   0  0  0  0  0  0  0  0  0  0  0  0
    5.4989  -15.6496   36.4159 H   0  0  0  0  0  0  0  0  0  0  0  0
    7.0019  -15.6368   37.4022 H   0  0  0  0  0  0  0  0  0  0  0  0
    5.5264  -11.9825   36.7910 H   0  0  0  0  0  0  0  0  0  0  0  0
    6.4087  -11.9496   38.3606 H   0  0  0  0  0  0  0  0  0  0  0  0
    7.1874  -12.6356   36.8883 H   0  0  0  0  0  0  0  0  0  0  0  0
    5.6351  -13.3952   39.9016 H   0  0  0  0  0  0  0  0  0  0  0  0
    9.5792  -15.6882   41.4439 H   0  0  0  0  0  0  0  0  0  0  0  0
    9.3674  -16.3307   39.7742 H   0  0  0  0  0  0  0  0  0  0  0  0
    9.4864  -18.1966   41.3901 H   0  0  0  0  0  0  0  0  0  0  0  0
    8.1456  -17.4856   42.3438 H   0  0  0  0  0  0  0  0  0  0  0  0
  3  2  2  0
  6  2  1  0
  8  7  1  0
  9  8  1  0
  7 10  1  0
 11  7  1  0
 12  7  1  0
 12  5  1  0
 13 12  1  0
 13  1  1  0
 13  4  2  0
 14  1  1  0
 15 14  1  0
 15  2  1  0
  1 16  1  0
  5 17  1  0
  6 18  1  0
  8 19  1  0
  8 20  1  0
  9 21  1  0
 10 22  1  0
 10 23  1  0
 10 24  1  0
 11 25  1  0
 11 26  1  0
 11 27  1  0
 12 28  1  1
 14 29  1  0
 14 30  1  0
 15 31  1  0
 15 32  1  0
M  END
