
     RDKit          3D

 32 31  0  0  0  0  0  0  0  0999 V2000
    8.4085  -10.5505    8.6687 N   0  0  0  0  0  0  0  0  0  0  0  0
    5.7200  -11.3146    7.5315 C   0  0  0  0  0  0  0  0  0  0  0  0
    4.5084  -11.6053    7.3996 O   0  0  0  0  0  0  0  0  0  0  0  0
    9.7183   -9.0408    9.8509 O   0  0  0  0  0  0  0  0  0  0  0  0
   10.5285  -12.1986    8.5488 O   0  0  0  0  0  0  0  0  0  0  0  0
    6.6778  -12.2100    7.0876 O   0  0  0  0  0  0  0  0  0  0  0  0
   10.4677  -11.9977   10.9595 C   0  0  0  0  0  0  0  0  0  0  0  0
   11.2964  -13.2993   10.8968 C   0  0  0  0  0  0  0  0  0  0  0  0
   12.6271  -13.0498   11.2765 O   0  0  0  0  0  0  0  0  0  0  0  0
   11.0172  -11.1243   12.1059 C   0  0  0  0  0  0  0  0  0  0  0  0
    8.9883  -12.3476   11.2448 C   0  0  0  0  0  0  0  0  0  0  0  0
   10.6126  -11.2612    9.5997 C   0  0  2  0  0  0  0  0  0  0  0  0
    9.5747  -10.2029    9.3821 C   0  0  0  0  0  0  0  0  0  0  0  0
    7.5268   -9.5887    8.0312 C   0  0  0  0  0  0  0  0  0  0  0  0
    6.0759  -10.0230    8.2128 C   0  0  0  0  0  0  0  0  0  0  0  0
    8.1570  -11.5589    8.6750 H   0  0  0  0  0  0  0  0  0  0  0  0
   11.4518  -12.3779    8.2311 H   0  0  0  0  0  0  0  0  0  0  0  0
    6.8658  -13.0670    7.5940 H   0  0  0  0  0  0  0  0  0  0  0  0
   11.2450  -13.7520    9.8776 H   0  0  0  0  0  0  0  0  0  0  0  0
   10.8706  -14.0543   11.5930 H   0  0  0  0  0  0  0  0  0  0  0  0
   13.1838  -13.0985   10.4562 H   0  0  0  0  0  0  0  0  0  0  0  0
   10.3811  -10.2285   12.2667 H   0  0  0  0  0  0  0  0  0  0  0  0
   11.0309  -11.6939   13.0604 H   0  0  0  0  0  0  0  0  0  0  0  0
   12.0523  -10.7834   11.8885 H   0  0  0  0  0  0  0  0  0  0  0  0
    8.3036  -11.7327   10.6232 H   0  0  0  0  0  0  0  0  0  0  0  0
    8.7841  -13.4212   11.0455 H   0  0  0  0  0  0  0  0  0  0  0  0
    8.7438  -12.1461   12.3101 H   0  0  0  0  0  0  0  0  0  0  0  0
   11.5975  -10.7351    9.5633 H   0  0  0  0  0  0  0  0  0  0  0  0
    7.7744   -9.5200    6.9503 H   0  0  0  0  0  0  0  0  0  0  0  0
    7.6519   -8.5813    8.4837 H   0  0  0  0  0  0  0  0  0  0  0  0
    5.8581  -10.1213    9.2984 H   0  0  0  0  0  0  0  0  0  0  0  0
    5.4196   -9.2203    7.8118 H   0  0  0  0  0  0  0  0  0  0  0  0
  3  2  2  0
  6  2  1  0
  8  7  1  0
  9  8  1  0
  7 10  1  0
 11  7  1  0
 12  5  1  0
 12  7  1  0
 13  1  1  0
 13 12  1  0
 13  4  2  0
 14  1  1  0
 15 14  1  0
 15  2  1  0
  1 16  1  0
  5 17  1  0
  6 18  1  0
  8 19  1  0
  8 20  1  0
  9 21  1  0
 10 22  1  0
 10 23  1  0
 10 24  1  0
 11 25  1  0
 11 26  1  0
 11 27  1  0
 12 28  1  1
 14 29  1  0
 14 30  1  0
 15 31  1  0
 15 32  1  0
M  END
