
     RDKit          3D

 32 31  0  0  0  0  0  0  0  0999 V2000
    9.1761   -9.9281   10.4832 N   0  0  0  0  0  0  0  0  0  0  0  0
    6.2903  -10.1355    9.6264 C   0  0  0  0  0  0  0  0  0  0  0  0
    5.0385  -10.1880    9.6193 O   0  0  0  0  0  0  0  0  0  0  0  0
   10.8380   -8.7460   11.5939 O   0  0  0  0  0  0  0  0  0  0  0  0
   10.9663  -11.8767   10.0111 O   0  0  0  0  0  0  0  0  0  0  0  0
    7.0095  -11.1820    9.0752 O   0  0  0  0  0  0  0  0  0  0  0  0
   11.1969  -11.8641   12.4199 C   0  0  0  0  0  0  0  0  0  0  0  0
   12.0572  -13.1395   12.2846 C   0  0  0  0  0  0  0  0  0  0  0  0
   13.3633  -12.8073   11.8836 O   0  0  0  0  0  0  0  0  0  0  0  0
   11.7303  -11.0399   13.6095 C   0  0  0  0  0  0  0  0  0  0  0  0
    9.7280  -12.2654   12.6912 C   0  0  0  0  0  0  0  0  0  0  0  0
   11.3172  -11.0526   11.1010 C   0  0  2  0  0  0  0  0  0  0  0  0
   10.4533   -9.8288   11.0739 C   0  0  0  0  0  0  0  0  0  0  0  0
    8.4347   -8.7982    9.9518 C   0  0  0  0  0  0  0  0  0  0  0  0
    6.9535   -8.9556   10.2800 C   0  0  0  0  0  0  0  0  0  0  0  0
    8.7385  -10.8705   10.5054 H   0  0  0  0  0  0  0  0  0  0  0  0
   11.8075  -12.1742    9.5759 H   0  0  0  0  0  0  0  0  0  0  0  0
    6.5538  -12.0484    8.8145 H   0  0  0  0  0  0  0  0  0  0  0  0
   11.5869  -13.8600   11.5734 H   0  0  0  0  0  0  0  0  0  0  0  0
   12.1154  -13.6636   13.2634 H   0  0  0  0  0  0  0  0  0  0  0  0
   13.4644  -13.0907   10.9377 H   0  0  0  0  0  0  0  0  0  0  0  0
   11.0731  -10.1700   13.8202 H   0  0  0  0  0  0  0  0  0  0  0  0
   11.7627  -11.6591   14.5320 H   0  0  0  0  0  0  0  0  0  0  0  0
   12.7556  -10.6621   13.4070 H   0  0  0  0  0  0  0  0  0  0  0  0
    9.6700  -13.1263   13.3904 H   0  0  0  0  0  0  0  0  0  0  0  0
    9.1530  -11.4174   13.1205 H   0  0  0  0  0  0  0  0  0  0  0  0
    9.2312  -12.5698   11.7447 H   0  0  0  0  0  0  0  0  0  0  0  0
   12.3665  -10.6884   10.9811 H   0  0  0  0  0  0  0  0  0  0  0  0
    8.5805   -8.7449    8.8516 H   0  0  0  0  0  0  0  0  0  0  0  0
    8.7951   -7.8467   10.3990 H   0  0  0  0  0  0  0  0  0  0  0  0
    6.8317   -9.0437   11.3814 H   0  0  0  0  0  0  0  0  0  0  0  0
    6.4256   -8.0317    9.9584 H   0  0  0  0  0  0  0  0  0  0  0  0
  3  2  2  0
  6  2  1  0
  8  7  1  0
  9  8  1  0
  7 10  1  0
 11  7  1  0
 12  5  1  0
 12  7  1  0
 13  1  1  0
 13 12  1  0
 13  4  2  0
 14  1  1  0
 15 14  1  0
 15  2  1  0
  1 16  1  0
  5 17  1  0
  6 18  1  0
  8 19  1  0
  8 20  1  0
  9 21  1  0
 10 22  1  0
 10 23  1  0
 10 24  1  0
 11 25  1  0
 11 26  1  0
 11 27  1  0
 12 28  1  6
 14 29  1  0
 14 30  1  0
 15 31  1  0
 15 32  1  0
M  END
