
     RDKit          3D

 34 35  0  0  0  0  0  0  0  0999 V2000
    5.1517   13.3245   30.3604 O   0  0  0  0  0  0  0  0  0  0  0  0
    1.7044    4.1184   30.4799 C   0  0  0  0  0  0  0  0  0  0  0  0
    7.3997   12.3053   30.3151 O   0  0  0  0  0  0  0  0  0  0  0  0
    0.8252    5.0276   29.9003 C   0  0  0  0  0  0  0  0  0  0  0  0
   -0.4440    4.8302   29.1373 C   0  0  0  0  0  0  0  0  0  0  0  0
   -1.6101    5.6307   29.6700 C   0  0  0  0  0  0  0  0  0  0  0  0
   -0.7257    3.4659   28.5484 C   0  0  0  0  0  0  0  0  0  0  0  0
    1.4199    6.5789   30.1049 S   0  0  0  0  0  0  0  0  0  0  0  0
    2.8139    6.0447   30.8694 C   0  0  0  0  0  0  0  0  0  0  0  0
    2.8143    4.6933   31.0151 N   0  0  0  0  0  0  0  0  0  0  0  0
    6.0178   12.3735   28.0568 N   0  0  0  0  0  0  0  0  0  0  0  0
    4.1744   10.2108   29.5881 C   0  0  0  0  0  0  0  0  0  0  0  0
    5.3362   10.6940   30.1981 C   0  0  0  0  0  0  0  0  0  0  0  0
    6.0084    9.9197   31.1343 C   0  0  0  0  0  0  0  0  0  0  0  0
    6.0009   12.2313   29.7692 S   0  0  0  0  0  0  0  0  0  0  0  0
    5.5161    8.6686   31.4774 C   0  0  0  0  0  0  0  0  0  0  0  0
    4.3419    8.1630   30.8963 C   0  0  0  0  0  0  0  0  0  0  0  0
    3.6804    8.9472   29.9262 C   0  0  0  0  0  0  0  0  0  0  0  0
    3.9089    6.8543   31.3266 N   0  0  0  0  0  0  0  0  0  0  0  0
    1.5450    3.0486   30.4835 H   0  0  0  0  0  0  0  0  0  0  0  0
   -0.2421    5.3842   28.1905 H   0  0  0  0  0  0  0  0  0  0  0  0
   -1.7195    5.4447   30.7592 H   0  0  0  0  0  0  0  0  0  0  0  0
   -2.5532    5.3322   29.1633 H   0  0  0  0  0  0  0  0  0  0  0  0
   -1.4518    6.7192   29.5075 H   0  0  0  0  0  0  0  0  0  0  0  0
   -0.1142    3.3037   27.6343 H   0  0  0  0  0  0  0  0  0  0  0  0
   -1.8007    3.3641   28.2838 H   0  0  0  0  0  0  0  0  0  0  0  0
   -0.4676    2.6828   29.2919 H   0  0  0  0  0  0  0  0  0  0  0  0
    6.1347   13.3878   27.8361 H   0  0  0  0  0  0  0  0  0  0  0  0
    5.0686   12.0995   27.7170 H   0  0  0  0  0  0  0  0  0  0  0  0
    3.6608   10.7939   28.8349 H   0  0  0  0  0  0  0  0  0  0  0  0
    6.9186   10.2786   31.5992 H   0  0  0  0  0  0  0  0  0  0  0  0
    6.0564    8.0865   32.2138 H   0  0  0  0  0  0  0  0  0  0  0  0
    2.8109    8.6077   29.3988 H   0  0  0  0  0  0  0  0  0  0  0  0
    4.5338    6.3609   32.0045 H   0  0  0  0  0  0  0  0  0  0  0  0
  4  2  2  0
  5  4  1  0
  5  6  1  0
  7  5  1  0
  8  4  1  0
  9  8  1  0
 10  2  1  0
 10  9  2  0
 13 12  2  0
 14 13  1  0
 15 13  1  0
 15 11  1  0
 15  3  2  0
 15  1  2  0
 16 14  2  0
 17 16  1  0
 18 17  2  0
 18 12  1  0
 19 17  1  0
 19  9  1  0
  2 20  1  0
  5 21  1  0
  6 22  1  0
  6 23  1  0
  6 24  1  0
  7 25  1  0
  7 26  1  0
  7 27  1  0
 11 28  1  0
 11 29  1  0
 12 30  1  0
 14 31  1  0
 16 32  1  0
 18 33  1  0
 19 34  1  0
M  END
