
     RDKit          3D

 40 41  0  0  0  0  0  0  0  0999 V2000
   17.6191   40.7833   16.0765 C   0  0  0  0  0  0  0  0  0  0  0  0
   13.8503   44.8409   19.9603 C   0  0  0  0  0  0  0  0  0  0  0  0
   10.8872   43.1451   22.7386 P   0  0  0  0  0  0  0  0  0  0  0  0
   16.1185   42.6146   15.4136 N   0  0  0  0  0  0  0  0  0  0  0  0
   12.2682   42.5357   22.7288 O   0  0  0  0  0  0  0  0  0  0  0  0
   10.9060   44.7726   17.3031 S   0  0  0  0  0  0  0  0  0  0  0  0
   12.3752   45.2038   16.6067 C   0  0  0  0  0  0  0  0  0  0  0  0
   16.9896   42.1061   16.3191 C   0  0  0  0  0  0  0  0  0  0  0  0
   10.1079   42.7433   24.1682 O   0  0  0  0  0  0  0  0  0  0  0  0
   13.3798   45.2023   17.5182 N   0  0  0  0  0  0  0  0  0  0  0  0
   17.3020   42.8118   17.4301 N   0  0  0  0  0  0  0  0  0  0  0  0
   10.9913   44.8142   22.6253 O   0  0  0  0  0  0  0  0  0  0  0  0
   12.9437   44.8240   18.7644 C   0  0  0  0  0  0  0  0  0  0  0  0
   16.6959   43.9945   17.7074 C   0  0  0  0  0  0  0  0  0  0  0  0
   17.1467   44.7229   18.8465 N   0  0  0  0  0  0  0  0  0  0  0  0
   11.5651   44.5522   18.8382 C   0  0  0  0  0  0  0  0  0  0  0  0
   15.6667   44.4696   16.8549 C   0  0  0  0  0  0  0  0  0  0  0  0
   10.7468   44.2237   20.0617 C   0  0  0  0  0  0  0  0  0  0  0  0
   15.4673   43.7790   15.6531 C   0  0  0  0  0  0  0  0  0  0  0  0
   10.4529   42.7255   20.2112 C   0  0  0  0  0  0  0  0  0  0  0  0
   14.7549   45.6420   17.1845 C   0  0  0  0  0  0  0  0  0  0  0  0
    9.9132   42.5215   21.4988 O   0  0  0  0  0  0  0  0  0  0  0  0
   16.8383   40.0011   15.9667 H   0  0  0  0  0  0  0  0  0  0  0  0
   18.2780   40.5091   16.9275 H   0  0  0  0  0  0  0  0  0  0  0  0
   18.2241   40.8274   15.1472 H   0  0  0  0  0  0  0  0  0  0  0  0
   14.0627   45.8884   20.2587 H   0  0  0  0  0  0  0  0  0  0  0  0
   14.7919   44.3181   19.7214 H   0  0  0  0  0  0  0  0  0  0  0  0
   13.4154   44.2963   20.8205 H   0  0  0  0  0  0  0  0  0  0  0  0
   12.5029   45.4804   15.5680 H   0  0  0  0  0  0  0  0  0  0  0  0
    9.6416   41.8920   23.9710 H   0  0  0  0  0  0  0  0  0  0  0  0
   10.6378   45.1526   23.4863 H   0  0  0  0  0  0  0  0  0  0  0  0
   18.1497   44.8032   19.1137 H   0  0  0  0  0  0  0  0  0  0  0  0
   16.4467   45.1060   19.5201 H   0  0  0  0  0  0  0  0  0  0  0  0
    9.7785   44.7644   19.9907 H   0  0  0  0  0  0  0  0  0  0  0  0
   11.2420   44.6080   20.9765 H   0  0  0  0  0  0  0  0  0  0  0  0
   14.7389   44.1310   14.9340 H   0  0  0  0  0  0  0  0  0  0  0  0
    9.7709   42.4169   19.3856 H   0  0  0  0  0  0  0  0  0  0  0  0
   11.3992   42.1490   20.1264 H   0  0  0  0  0  0  0  0  0  0  0  0
   14.7243   46.3153   16.2994 H   0  0  0  0  0  0  0  0  0  0  0  0
   15.1427   46.2801   17.9975 H   0  0  0  0  0  0  0  0  0  0  0  0
  5  3  2  0
  7  6  1  0
  8  4  2  0
  8  1  1  0
  9  3  1  0
 10  7  2  0
 11  8  1  0
 12  3  1  0
 13 10  1  0
 13  2  1  0
 14 11  2  0
 15 14  1  0
 16 13  2  0
 16  6  1  0
 17 14  1  0
 18 16  1  0
 19 17  2  0
 19  4  1  0
 20 18  1  0
 21 17  1  0
 21 10  1  0
 22 20  1  0
 22  3  1  0
  1 23  1  0
  1 24  1  0
  1 25  1  0
  2 26  1  0
  2 27  1  0
  2 28  1  0
  7 29  1  0
  9 30  1  0
 12 31  1  0
 15 32  1  0
 15 33  1  0
 18 34  1  0
 18 35  1  0
 19 36  1  0
 20 37  1  0
 20 38  1  0
 21 39  1  0
 21 40  1  0
M  CHG  1  10   1
M  END
