
     RDKit          3D

 62 64  0  0  0  0  0  0  0  0999 V2000
   30.5236   21.0106   10.0231 P   0  0  1  0  0  0  0  0  0  0  0  0
   30.6816   18.4049    8.8263 P   0  0  2  0  0  0  0  0  0  0  0  0
   31.4060   20.6151   11.1827 O   0  0  0  0  0  0  0  0  0  0  0  0
   29.2403   21.9137   10.6121 O   0  0  0  0  0  0  0  0  0  0  0  0
   31.0160   18.4173    7.3457 O   0  0  0  0  0  0  0  0  0  0  0  0
   32.0594   18.1467    9.7557 O   0  0  0  0  0  0  0  0  0  0  0  0
   30.7607   22.1870    7.7615 C   0  0  0  0  0  0  0  0  0  0  0  0
   31.4361   21.9020    8.9491 O   0  0  0  0  0  0  0  0  0  0  0  0
   31.7829   22.9187    6.8901 C   0  0  1  0  0  0  0  0  0  0  0  0
   31.9803   24.2105    7.4251 O   0  0  0  0  0  0  0  0  0  0  0  0
   33.1414   22.1941    6.8622 C   0  0  1  0  0  0  0  0  0  0  0  0
   33.7287   22.3367    5.5984 O   0  0  0  0  0  0  0  0  0  0  0  0
   33.9657   22.9483    7.8785 C   0  0  0  0  0  0  0  0  0  0  0  0
   33.3264   24.3338    7.8321 C   0  0  2  0  0  0  0  0  0  0  0  0
   28.2602   17.4490    8.8869 C   0  0  2  0  0  0  0  0  0  0  0  0
   29.6341   17.1226    9.1435 O   0  0  0  0  0  0  0  0  0  0  0  0
   27.3934   17.0668   10.1062 C   0  0  2  0  0  0  0  0  0  0  0  0
   27.7560   17.8048   11.2476 O   0  0  0  0  0  0  0  0  0  0  0  0
   27.5234   15.5501   10.3482 C   0  0  1  0  0  0  0  0  0  0  0  0
   26.7064   15.1567   11.4169 O   0  0  0  0  0  0  0  0  0  0  0  0
   27.1247   14.8010    9.0645 C   0  0  2  0  0  0  0  0  0  0  0  0
   27.3612   13.4257    9.2266 O   0  0  0  0  0  0  0  0  0  0  0  0
   27.9951   15.3398    7.9173 C   0  0  2  0  0  0  0  0  0  0  0  0
   31.3079   25.0775   12.2726 C   0  0  0  0  0  0  0  0  0  0  0  0
   27.8059   16.7388    7.7548 O   0  0  0  0  0  0  0  0  0  0  0  0
   27.7008   14.6726    6.5838 C   0  0  0  0  0  0  0  0  0  0  0  0
   28.6735   15.0984    5.6644 O   0  0  0  0  0  0  0  0  0  0  0  0
   33.3797   25.0444    9.1249 N   0  0  0  0  0  0  0  0  0  0  0  0
   34.2736   26.0600    9.3512 C   0  0  0  0  0  0  0  0  0  0  0  0
   35.1339   26.3777    8.4827 O   0  0  0  0  0  0  0  0  0  0  0  0
   34.2339   26.7443   10.5268 N   0  0  0  0  0  0  0  0  0  0  0  0
   33.3161   26.4584   11.4911 C   0  0  0  0  0  0  0  0  0  0  0  0
   33.3244   27.1110   12.5679 O   0  0  0  0  0  0  0  0  0  0  0  0
   32.3840   25.4375   11.2799 C   0  0  0  0  0  0  0  0  0  0  0  0
   32.4401   24.7605   10.0768 C   0  0  0  0  0  0  0  0  0  0  0  0
   29.7525   19.7465    9.2489 O   0  0  0  0  0  0  0  0  0  0  0  0
   29.2546   21.7687   11.5920 H   0  0  0  0  0  0  0  0  0  0  0  0
   32.6969   18.8474    9.4686 H   0  0  0  0  0  0  0  0  0  0  0  0
   29.8833   22.8445    7.9525 H   0  0  0  0  0  0  0  0  0  0  0  0
   30.4318   21.2712    7.2359 H   0  0  0  0  0  0  0  0  0  0  0  0
   31.3645   23.0143    5.8638 H   0  0  0  0  0  0  0  0  0  0  0  0
   33.0730   21.1135    7.1288 H   0  0  0  0  0  0  0  0  0  0  0  0
   34.1369   21.4594    5.3758 H   0  0  0  0  0  0  0  0  0  0  0  0
   33.8920   22.4638    8.8735 H   0  0  0  0  0  0  0  0  0  0  0  0
   35.0406   22.9903    7.5947 H   0  0  0  0  0  0  0  0  0  0  0  0
   33.8552   24.9089    7.0396 H   0  0  0  0  0  0  0  0  0  0  0  0
   28.0345   18.5072    8.6663 H   0  0  0  0  0  0  0  0  0  0  0  0
   26.3311   17.3040    9.8738 H   0  0  0  0  0  0  0  0  0  0  0  0
   28.6903   17.5649   11.4820 H   0  0  0  0  0  0  0  0  0  0  0  0
   28.5868   15.3129   10.5963 H   0  0  0  0  0  0  0  0  0  0  0  0
   25.7655   15.3060   11.1368 H   0  0  0  0  0  0  0  0  0  0  0  0
   26.0499   14.9899    8.8276 H   0  0  0  0  0  0  0  0  0  0  0  0
   26.5503   13.0418    9.6513 H   0  0  0  0  0  0  0  0  0  0  0  0
   29.0608   15.0943    8.1371 H   0  0  0  0  0  0  0  0  0  0  0  0
   31.6157   25.3441   13.3054 H   0  0  0  0  0  0  0  0  0  0  0  0
   31.1027   23.9856   12.2527 H   0  0  0  0  0  0  0  0  0  0  0  0
   30.3758   25.6250   12.0206 H   0  0  0  0  0  0  0  0  0  0  0  0
   27.7727   13.5686    6.6806 H   0  0  0  0  0  0  0  0  0  0  0  0
   26.6735   14.9254    6.2323 H   0  0  0  0  0  0  0  0  0  0  0  0
   28.3428   15.9453    5.2653 H   0  0  0  0  0  0  0  0  0  0  0  0
   34.9243   27.5124   10.6929 H   0  0  0  0  0  0  0  0  0  0  0  0
   31.7253   23.9893    9.9333 H   0  0  0  0  0  0  0  0  0  0  0  0
  3  1  2  0
  1  4  1  1
  5  2  2  0
  2  6  1  1
  8  1  1  0
  8  7  1  0
  9  7  1  0
 10  9  1  0
 11  9  1  0
 11 12  1  0
 13 11  1  0
 14 10  1  0
 14 13  1  0
 15 16  1  0
 16  2  1  0
 17 15  1  0
 17 18  1  0
 19 17  1  0
 19 20  1  0
 21 19  1  0
 21 22  1  0
 23 21  1  0
 25 23  1  0
 25 15  1  0
 23 26  1  0
 27 26  1  0
 14 28  1  0
 29 28  1  0
 30 29  2  0
 31 29  1  0
 32 31  1  0
 33 32  2  0
 34 24  1  0
 34 32  1  0
 35 28  1  0
 35 34  2  0
 36  2  1  0
 36  1  1  0
  4 37  1  0
  6 38  1  0
  7 39  1  0
  7 40  1  0
  9 41  1  6
 11 42  1  1
 12 43  1  0
 13 44  1  0
 13 45  1  0
 14 46  1  6
 15 47  1  6
 17 48  1  6
 18 49  1  0
 19 50  1  1
 20 51  1  0
 21 52  1  6
 22 53  1  0
 23 54  1  1
 24 55  1  0
 24 56  1  0
 24 57  1  0
 26 58  1  0
 26 59  1  0
 27 60  1  0
 31 61  1  0
 35 62  1  0
M  END
