
     RDKit          3D

 62 64  0  0  0  0  0  0  0  0999 V2000
   31.7357   19.9030   10.5109 P   0  0  1  0  0  0  0  0  0  0  0  0
   30.5357   18.2608    8.4835 P   0  0  2  0  0  0  0  0  0  0  0  0
   32.6332   18.8758   11.1583 O   0  0  0  0  0  0  0  0  0  0  0  0
   31.1228   20.9060   11.7058 O   0  0  0  0  0  0  0  0  0  0  0  0
   30.2564   18.9843    7.1786 O   0  0  0  0  0  0  0  0  0  0  0  0
   31.9917   17.4219    8.4107 O   0  0  0  0  0  0  0  0  0  0  0  0
   31.8719   21.6442    8.6388 C   0  0  0  0  0  0  0  0  0  0  0  0
   32.6395   20.7707    9.4104 O   0  0  0  0  0  0  0  0  0  0  0  0
   32.8562   22.2664    7.6471 C   0  0  1  0  0  0  0  0  0  0  0  0
   32.7571   23.6717    7.7441 O   0  0  0  0  0  0  0  0  0  0  0  0
   34.3114   21.8624    7.9478 C   0  0  1  0  0  0  0  0  0  0  0  0
   35.0233   21.7277    6.7488 O   0  0  0  0  0  0  0  0  0  0  0  0
   34.8553   23.0438    8.7158 C   0  0  0  0  0  0  0  0  0  0  0  0
   33.9979   24.1866    8.1778 C   0  0  2  0  0  0  0  0  0  0  0  0
   28.0916   17.4494    8.0986 C   0  0  2  0  0  0  0  0  0  0  0  0
   29.3274   17.1153    8.7475 O   0  0  0  0  0  0  0  0  0  0  0  0
   26.9263   17.3528    9.1071 C   0  0  2  0  0  0  0  0  0  0  0  0
   27.0729   18.2811   10.1539 O   0  0  0  0  0  0  0  0  0  0  0  0
   26.8520   15.9078    9.6385 C   0  0  1  0  0  0  0  0  0  0  0  0
   25.7699   15.7686   10.5183 O   0  0  0  0  0  0  0  0  0  0  0  0
   26.7037   14.9426    8.4492 C   0  0  2  0  0  0  0  0  0  0  0  0
   26.7646   13.6157    8.9064 O   0  0  0  0  0  0  0  0  0  0  0  0
   27.8697   15.2066    7.4825 C   0  0  2  0  0  0  0  0  0  0  0  0
   31.3962   25.7785   12.0563 C   0  0  0  0  0  0  0  0  0  0  0  0
   27.8568   16.5544    7.0325 O   0  0  0  0  0  0  0  0  0  0  0  0
   27.8419   14.3071    6.2576 C   0  0  0  0  0  0  0  0  0  0  0  0
   29.0417   14.4997    5.5535 O   0  0  0  0  0  0  0  0  0  0  0  0
   33.7607   25.2545    9.1691 N   0  0  0  0  0  0  0  0  0  0  0  0
   34.3937   26.4685    9.0841 C   0  0  0  0  0  0  0  0  0  0  0  0
   35.2587   26.6923    8.1913 O   0  0  0  0  0  0  0  0  0  0  0  0
   34.0843   27.4542    9.9698 N   0  0  0  0  0  0  0  0  0  0  0  0
   33.1463   27.2760   10.9406 C   0  0  0  0  0  0  0  0  0  0  0  0
   32.9010   28.2131   11.7452 O   0  0  0  0  0  0  0  0  0  0  0  0
   32.4757   26.0529   11.0403 C   0  0  0  0  0  0  0  0  0  0  0  0
   32.8025   25.0692   10.1268 C   0  0  0  0  0  0  0  0  0  0  0  0
   30.3502   19.2952    9.8016 O   0  0  0  0  0  0  0  0  0  0  0  0
   31.9125   21.3791   12.0717 H   0  0  0  0  0  0  0  0  0  0  0  0
   32.2152   17.2150    9.3525 H   0  0  0  0  0  0  0  0  0  0  0  0
   31.4173   22.4381    9.2728 H   0  0  0  0  0  0  0  0  0  0  0  0
   31.0786   21.1191    8.0749 H   0  0  0  0  0  0  0  0  0  0  0  0
   32.5635   21.9551    6.6201 H   0  0  0  0  0  0  0  0  0  0  0  0
   34.3966   20.9257    8.5467 H   0  0  0  0  0  0  0  0  0  0  0  0
   34.5325   21.0598    6.2022 H   0  0  0  0  0  0  0  0  0  0  0  0
   34.7385   22.8834    9.8071 H   0  0  0  0  0  0  0  0  0  0  0  0
   35.9342   23.2158    8.5065 H   0  0  0  0  0  0  0  0  0  0  0  0
   34.5173   24.5865    7.2786 H   0  0  0  0  0  0  0  0  0  0  0  0
   28.0253   18.4538    7.6445 H   0  0  0  0  0  0  0  0  0  0  0  0
   25.9775   17.5896    8.5757 H   0  0  0  0  0  0  0  0  0  0  0  0
   26.1858   18.3989   10.5836 H   0  0  0  0  0  0  0  0  0  0  0  0
   27.7982   15.6739   10.1850 H   0  0  0  0  0  0  0  0  0  0  0  0
   24.9412   15.8915    9.9852 H   0  0  0  0  0  0  0  0  0  0  0  0
   25.7393   15.1319    7.9189 H   0  0  0  0  0  0  0  0  0  0  0  0
   26.4268   13.6165    9.8398 H   0  0  0  0  0  0  0  0  0  0  0  0
   28.8241   14.9589    8.0042 H   0  0  0  0  0  0  0  0  0  0  0  0
   31.3121   26.6148   12.7815 H   0  0  0  0  0  0  0  0  0  0  0  0
   31.6216   24.8546   12.6311 H   0  0  0  0  0  0  0  0  0  0  0  0
   30.4238   25.6522   11.5360 H   0  0  0  0  0  0  0  0  0  0  0  0
   27.7848   13.2408    6.5632 H   0  0  0  0  0  0  0  0  0  0  0  0
   26.9567   14.5344    5.6190 H   0  0  0  0  0  0  0  0  0  0  0  0
   29.2948   13.6205    5.1677 H   0  0  0  0  0  0  0  0  0  0  0  0
   34.5775   28.3741    9.9012 H   0  0  0  0  0  0  0  0  0  0  0  0
   32.2838   24.1478   10.2168 H   0  0  0  0  0  0  0  0  0  0  0  0
  3  1  2  0
  1  4  1  1
  5  2  2  0
  2  6  1  6
  8  1  1  0
  8  7  1  0
  9  7  1  0
 10  9  1  0
 11  9  1  0
 11 12  1  0
 13 11  1  0
 14 10  1  0
 14 13  1  0
 15 16  1  0
 16  2  1  0
 17 15  1  0
 17 18  1  0
 19 17  1  0
 19 20  1  0
 21 19  1  0
 21 22  1  0
 23 21  1  0
 25 23  1  0
 25 15  1  0
 23 26  1  0
 27 26  1  0
 14 28  1  0
 29 28  1  0
 30 29  2  0
 31 29  1  0
 32 31  1  0
 33 32  2  0
 34 24  1  0
 34 32  1  0
 35 28  1  0
 35 34  2  0
 36  2  1  0
 36  1  1  0
  4 37  1  0
  6 38  1  0
  7 39  1  0
  7 40  1  0
  9 41  1  6
 11 42  1  1
 12 43  1  0
 13 44  1  0
 13 45  1  0
 14 46  1  6
 15 47  1  6
 17 48  1  6
 18 49  1  0
 19 50  1  1
 20 51  1  0
 21 52  1  6
 22 53  1  0
 23 54  1  1
 24 55  1  0
 24 56  1  0
 24 57  1  0
 26 58  1  0
 26 59  1  0
 27 60  1  0
 31 61  1  0
 35 62  1  0
M  END
