
     RDKit          3D

 49 51  0  0  0  0  0  0  0  0999 V2000
  -10.9101  -15.1059  -25.4954 P   0  0  2  0  0  0  0  0  0  0  0  0
   -8.1937  -15.2009  -24.7824 P   0  0  1  0  0  0  0  0  0  0  0  0
   -7.0739  -15.0428  -22.0611 P   0  0  0  0  0  0  0  0  0  0  0  0
  -11.8530  -12.7431  -25.4889 C   0  0  0  0  0  0  0  0  0  0  0  0
  -11.9232  -13.9623  -26.1848 O   0  0  0  0  0  0  0  0  0  0  0  0
  -13.0220  -11.8918  -25.9878 C   0  0  1  0  0  0  0  0  0  0  0  0
  -12.8287  -11.6143  -27.3653 O   0  0  0  0  0  0  0  0  0  0  0  0
  -14.3647  -12.6270  -25.8129 C   0  0  1  0  0  0  0  0  0  0  0  0
  -15.3681  -11.7054  -25.4702 O   0  0  0  0  0  0  0  0  0  0  0  0
  -14.6032  -13.1906  -27.1999 C   0  0  1  0  0  0  0  0  0  0  0  0
  -15.9611  -13.3768  -27.5181 O   0  0  0  0  0  0  0  0  0  0  0  0
  -13.9176  -12.1541  -28.0826 C   0  0  2  0  0  0  0  0  0  0  0  0
  -14.1676  -11.9765  -33.2241 N   0  0  0  0  0  0  0  0  0  0  0  0
  -10.9894  -16.3428  -26.3558 O   0  0  0  0  0  0  0  0  0  0  0  0
   -6.9692  -15.0599  -25.6518 O   0  0  0  0  0  0  0  0  0  0  0  0
   -7.1521  -14.1445  -20.8489 O   0  0  0  0  0  0  0  0  0  0  0  0
  -14.8315  -11.2035  -32.3009 C   0  0  0  0  0  0  0  0  0  0  0  0
  -15.7338  -10.1995  -32.7426 N   0  0  0  0  0  0  0  0  0  0  0  0
  -11.4101  -15.4080  -23.9197 O   0  0  0  0  0  0  0  0  0  0  0  0
   -8.5323  -16.8249  -24.5201 O   0  0  0  0  0  0  0  0  0  0  0  0
   -7.6900  -16.5565  -21.6803 O   0  0  0  0  0  0  0  0  0  0  0  0
  -14.6406  -11.3988  -30.9634 N   0  0  0  0  0  0  0  0  0  0  0  0
   -8.0247  -14.2845  -23.3058 N   0  0  0  0  0  0  0  0  0  0  0  0
   -9.3972  -14.3842  -25.6184 O   0  0  0  0  0  0  0  0  0  0  0  0
   -5.4742  -15.1806  -22.5429 O   0  0  0  0  0  0  0  0  0  0  0  0
  -13.7851  -12.3799  -30.5885 C   0  0  0  0  0  0  0  0  0  0  0  0
  -13.1200  -13.1616  -31.4772 C   0  0  0  0  0  0  0  0  0  0  0  0
  -13.3018  -12.9623  -32.8437 C   0  0  0  0  0  0  0  0  0  0  0  0
  -12.6964  -13.6517  -33.7103 O   0  0  0  0  0  0  0  0  0  0  0  0
  -12.3287  -14.0416  -30.8300 N   0  0  0  0  0  0  0  0  0  0  0  0
  -12.5582  -13.7490  -29.5214 C   0  0  0  0  0  0  0  0  0  0  0  0
  -13.4511  -12.7387  -29.3423 N   0  0  0  0  0  0  0  0  0  0  0  0
  -11.9598  -12.8814  -24.3883 H   0  0  0  0  0  0  0  0  0  0  0  0
  -10.8956  -12.2219  -25.7104 H   0  0  0  0  0  0  0  0  0  0  0  0
  -13.0225  -10.9335  -25.4229 H   0  0  0  0  0  0  0  0  0  0  0  0
  -14.3248  -13.4488  -25.0586 H   0  0  0  0  0  0  0  0  0  0  0  0
  -15.3802  -11.0215  -26.1897 H   0  0  0  0  0  0  0  0  0  0  0  0
  -14.0997  -14.1762  -27.2868 H   0  0  0  0  0  0  0  0  0  0  0  0
  -16.4039  -12.4901  -27.5644 H   0  0  0  0  0  0  0  0  0  0  0  0
  -14.6190  -11.3170  -28.2994 H   0  0  0  0  0  0  0  0  0  0  0  0
  -14.3269  -11.8080  -34.2435 H   0  0  0  0  0  0  0  0  0  0  0  0
  -15.3759   -9.2678  -33.0492 H   0  0  0  0  0  0  0  0  0  0  0  0
  -16.7624  -10.3774  -32.7672 H   0  0  0  0  0  0  0  0  0  0  0  0
  -12.3585  -15.6807  -24.0039 H   0  0  0  0  0  0  0  0  0  0  0  0
   -7.8224  -17.1431  -23.9082 H   0  0  0  0  0  0  0  0  0  0  0  0
   -7.1209  -17.1949  -22.1801 H   0  0  0  0  0  0  0  0  0  0  0  0
   -7.5557  -13.3840  -23.5517 H   0  0  0  0  0  0  0  0  0  0  0  0
   -5.3270  -14.4190  -23.1588 H   0  0  0  0  0  0  0  0  0  0  0  0
  -12.0691  -14.2715  -28.7125 H   0  0  0  0  0  0  0  0  0  0  0  0
  5  4  1  0
  1  5  1  6
  6  4  1  0
  7  6  1  0
  8  6  1  0
  8  9  1  0
 10  8  1  0
 10 11  1  0
 12 10  1  0
 12  7  1  0
 14  1  2  0
 15  2  2  0
 16  3  2  0
 17 13  1  0
 18 17  1  0
 19  1  1  0
  2 20  1  1
 21  3  1  0
 22 17  2  0
 23  3  1  0
 23  2  1  0
 24  2  1  0
 24  1  1  0
 25  3  1  0
 26 22  1  0
 27 26  2  0
 28 13  1  0
 28 27  1  0
 29 28  2  0
 30 27  1  0
 31 30  2  0
 32 31  1  0
 32 26  1  0
 12 32  1  0
  4 33  1  0
  4 34  1  0
  6 35  1  1
  8 36  1  1
  9 37  1  0
 10 38  1  1
 11 39  1  0
 12 40  1  6
 13 41  1  0
 18 42  1  0
 18 43  1  0
 19 44  1  0
 20 45  1  0
 21 46  1  0
 23 47  1  0
 25 48  1  0
 31 49  1  0
M  END
