
     RDKit          3D

 37 38  0  0  0  0  0  0  0  0999 V2000
   -6.6645    3.9009   15.7511 Cl  0  0  0  0  0  0  0  0  0  0  0  0
    1.0379    5.3356    9.8379 N   0  0  0  0  0  0  0  0  0  0  0  0
    0.3031    4.6416   10.7358 C   0  0  0  0  0  0  0  0  0  0  0  0
   -0.1010    5.2382   11.8918 N   0  0  0  0  0  0  0  0  0  0  0  0
    0.1919    6.5408   12.1521 C   0  0  0  0  0  0  0  0  0  0  0  0
    0.9330    7.2716   11.2180 C   0  0  0  0  0  0  0  0  0  0  0  0
    1.3684    6.6299   10.0532 C   0  0  0  0  0  0  0  0  0  0  0  0
   -0.1310    2.9538   10.3080 S   0  0  0  0  0  0  0  0  0  0  0  0
   -1.2425    2.5229   11.6934 C   0  0  0  0  0  0  0  0  0  0  0  0
   -2.6982    2.7468   11.3836 C   0  0  0  0  0  0  0  0  0  0  0  0
   -3.1134    2.6885   10.1928 O   0  0  0  0  0  0  0  0  0  0  0  0
   -0.3332    7.2002   13.3961 C   0  0  0  0  0  0  0  0  0  0  0  0
    2.2149    7.3430    9.0558 C   0  0  0  0  0  0  0  0  0  0  0  0
   -3.6527    3.0214   12.4742 C   0  0  0  0  0  0  0  0  0  0  0  0
   -3.5937    2.2982   13.6699 C   0  0  0  0  0  0  0  0  0  0  0  0
   -4.5194    2.5343   14.6851 C   0  0  0  0  0  0  0  0  0  0  0  0
   -5.5106    3.5138   14.4994 C   0  0  0  0  0  0  0  0  0  0  0  0
   -5.5533    4.2599   13.3232 C   0  0  0  0  0  0  0  0  0  0  0  0
   -4.6538    3.9866   12.3025 C   0  0  0  0  0  0  0  0  0  0  0  0
   -4.5224    1.5107   16.1155 S   0  0  0  0  0  0  0  0  0  0  0  0
   -5.8432    1.7106   16.8015 O   0  0  0  0  0  0  0  0  0  0  0  0
   -3.3980    1.9021   17.0244 O   0  0  0  0  0  0  0  0  0  0  0  0
   -4.3271   -0.1555   15.7233 N   0  0  0  0  0  0  0  0  0  0  0  0
    1.1771    8.3118   11.3989 H   0  0  0  0  0  0  0  0  0  0  0  0
   -0.9453    3.1287   12.5761 H   0  0  0  0  0  0  0  0  0  0  0  0
   -1.0896    1.4518   11.9404 H   0  0  0  0  0  0  0  0  0  0  0  0
   -1.2726    7.7425   13.1603 H   0  0  0  0  0  0  0  0  0  0  0  0
    0.4159    7.9171   13.7936 H   0  0  0  0  0  0  0  0  0  0  0  0
   -0.5447    6.4384   14.1764 H   0  0  0  0  0  0  0  0  0  0  0  0
    2.9094    6.6363    8.5535 H   0  0  0  0  0  0  0  0  0  0  0  0
    1.5719    7.8160    8.2838 H   0  0  0  0  0  0  0  0  0  0  0  0
    2.8103    8.1284    9.5669 H   0  0  0  0  0  0  0  0  0  0  0  0
   -2.8431    1.5305   13.7841 H   0  0  0  0  0  0  0  0  0  0  0  0
   -6.3024    5.0299   13.1872 H   0  0  0  0  0  0  0  0  0  0  0  0
   -4.7125    4.5575   11.3837 H   0  0  0  0  0  0  0  0  0  0  0  0
   -3.4648   -0.4969   16.2041 H   0  0  0  0  0  0  0  0  0  0  0  0
   -4.1718   -0.2243   14.6927 H   0  0  0  0  0  0  0  0  0  0  0  0
  3  2  2  0
  4  3  1  0
  5  4  2  0
  6  5  1  0
  7  2  1  0
  7  6  2  0
  8  3  1  0
  9  8  1  0
 10  9  1  0
 11 10  2  0
 12  5  1  0
 13  7  1  0
 14 10  1  0
 15 14  2  0
 16 15  1  0
 17 16  2  0
 17  1  1  0
 18 17  1  0
 19 18  2  0
 19 14  1  0
 20 16  1  0
 21 20  2  0
 22 20  2  0
 20 23  1  0
  6 24  1  0
  9 25  1  0
  9 26  1  0
 12 27  1  0
 12 28  1  0
 12 29  1  0
 13 30  1  0
 13 31  1  0
 13 32  1  0
 15 33  1  0
 18 34  1  0
 19 35  1  0
 23 36  1  0
 23 37  1  0
M  END
