
     RDKit          3D

 82 83  0  0  0  0  0  0  0  0999 V2000
   15.5768   37.4414   18.7342 C   0  0  0  0  0  0  0  0  0  0  0  0
   15.2089   36.1125   18.3787 O   0  0  0  0  0  0  0  0  0  0  0  0
   15.9183   35.3484   17.4503 C   0  0  0  0  0  0  0  0  0  0  0  0
   16.8907   35.9281   16.6195 C   0  0  0  0  0  0  0  0  0  0  0  0
   17.6005   35.1451   15.7231 C   0  0  0  0  0  0  0  0  0  0  0  0
   17.3591   33.7749   15.6529 C   0  0  0  0  0  0  0  0  0  0  0  0
   16.3881   33.1845   16.4683 C   0  0  0  0  0  0  0  0  0  0  0  0
   15.6627   33.9743   17.3617 C   0  0  0  0  0  0  0  0  0  0  0  0
   18.2822   32.8141   14.5470 S   0  0  0  0  0  0  0  0  0  0  0  0
   17.4216   31.7033   14.0407 O   0  0  0  0  0  0  0  0  0  0  0  0
   18.7170   33.6580   13.3904 O   0  0  0  0  0  0  0  0  0  0  0  0
   19.7055   32.1854   15.2950 N   0  0  0  0  0  0  0  0  0  0  0  0
   20.4242   33.2275   16.0518 C   0  0  0  0  0  0  0  0  0  0  0  0
   21.9431   32.9984   15.9717 C   0  0  0  0  0  0  0  0  0  0  0  0
   22.6789   34.0083   16.8549 C   0  0  0  0  0  0  0  0  0  0  0  0
   22.4404   33.0896   14.5185 C   0  0  0  0  0  0  0  0  0  0  0  0
   19.4515   30.9448   16.0491 C   0  0  0  0  0  0  0  0  0  0  0  0
   20.3077   29.8299   15.4387 C   0  0  1  0  0  0  0  0  0  0  0  0
   20.3153   28.7239   16.3003 O   0  0  0  0  0  0  0  0  0  0  0  0
   19.8676   29.4124   14.0192 C   0  0  1  0  0  0  0  0  0  0  0  0
   20.9389   28.6167   13.4379 N   0  0  0  0  0  0  0  0  0  0  0  0
   21.6473   28.9956   12.2669 C   0  0  0  0  0  0  0  0  0  0  0  0
   22.6786   28.0645   11.7230 C   0  0  2  0  0  0  0  0  0  0  0  0
   21.3884   30.0779   11.6737 O   0  0  0  0  0  0  0  0  0  0  0  0
   23.9355   28.8519   11.2951 C   0  0  1  0  0  0  0  0  0  0  0  0
   25.1645   28.3512   12.0727 C   0  0  0  0  0  0  0  0  0  0  0  0
   24.1793   28.8334    9.7718 C   0  0  0  0  0  0  0  0  0  0  0  0
   24.3660   27.4347    9.1903 C   0  0  0  0  0  0  0  0  0  0  0  0
   21.8563   25.9385   10.6027 C   0  0  0  0  0  0  0  0  0  0  0  0
   22.0939   27.3457   10.5977 N   0  0  0  0  0  0  0  0  0  0  0  0
   22.1429   25.2321   11.6069 O   0  0  0  0  0  0  0  0  0  0  0  0
   21.3180   25.2978    9.3724 C   0  0  0  0  0  0  0  0  0  0  0  0
   18.5709   28.5808   13.9831 C   0  0  0  0  0  0  0  0  0  0  0  0
   18.5262   26.9248   12.0645 C   0  0  0  0  0  0  0  0  0  0  0  0
   18.2492   26.6026   10.7326 C   0  0  0  0  0  0  0  0  0  0  0  0
   17.6935   27.5605    9.8822 C   0  0  0  0  0  0  0  0  0  0  0  0
   17.4155   28.8418   10.3618 C   0  0  0  0  0  0  0  0  0  0  0  0
   17.6856   29.1654   11.6928 C   0  0  0  0  0  0  0  0  0  0  0  0
   18.2333   28.2070   12.5592 C   0  0  0  0  0  0  0  0  0  0  0  0
   16.6314   37.4698   19.0825 H   0  0  0  0  0  0  0  0  0  0  0  0
   15.4357   38.1238   17.8696 H   0  0  0  0  0  0  0  0  0  0  0  0
   14.9229   37.7874   19.5606 H   0  0  0  0  0  0  0  0  0  0  0  0
   17.1058   36.9869   16.6543 H   0  0  0  0  0  0  0  0  0  0  0  0
   18.3405   35.6145   15.0875 H   0  0  0  0  0  0  0  0  0  0  0  0
   16.1965   32.1202   16.4186 H   0  0  0  0  0  0  0  0  0  0  0  0
   14.9148   33.5186   17.9981 H   0  0  0  0  0  0  0  0  0  0  0  0
   20.0798   33.2617   17.1099 H   0  0  0  0  0  0  0  0  0  0  0  0
   20.2300   34.2343   15.6233 H   0  0  0  0  0  0  0  0  0  0  0  0
   22.1851   31.9936   16.3736 H   0  0  0  0  0  0  0  0  0  0  0  0
   22.3448   33.9114   17.9101 H   0  0  0  0  0  0  0  0  0  0  0  0
   23.7735   33.8206   16.8220 H   0  0  0  0  0  0  0  0  0  0  0  0
   22.4835   35.0468   16.5105 H   0  0  0  0  0  0  0  0  0  0  0  0
   21.5845   33.2633   13.8322 H   0  0  0  0  0  0  0  0  0  0  0  0
   23.1461   33.9392   14.4010 H   0  0  0  0  0  0  0  0  0  0  0  0
   22.9551   32.1513   14.2197 H   0  0  0  0  0  0  0  0  0  0  0  0
   19.7404   31.0542   17.1184 H   0  0  0  0  0  0  0  0  0  0  0  0
   18.3812   30.6525   16.0620 H   0  0  0  0  0  0  0  0  0  0  0  0
   21.3460   30.2231   15.3528 H   0  0  0  0  0  0  0  0  0  0  0  0
   20.0187   27.9335   15.7777 H   0  0  0  0  0  0  0  0  0  0  0  0
   19.7104   30.3341   13.4189 H   0  0  0  0  0  0  0  0  0  0  0  0
   21.1631   27.6967   13.8817 H   0  0  0  0  0  0  0  0  0  0  0  0
   22.9749   27.3496   12.5214 H   0  0  0  0  0  0  0  0  0  0  0  0
   23.7967   29.9254   11.5562 H   0  0  0  0  0  0  0  0  0  0  0  0
   25.2986   27.2551   11.9573 H   0  0  0  0  0  0  0  0  0  0  0  0
   25.0576   28.5764   13.1552 H   0  0  0  0  0  0  0  0  0  0  0  0
   26.0826   28.8639   11.7150 H   0  0  0  0  0  0  0  0  0  0  0  0
   23.3315   29.3268    9.2493 H   0  0  0  0  0  0  0  0  0  0  0  0
   25.0846   29.4360    9.5396 H   0  0  0  0  0  0  0  0  0  0  0  0
   24.3193   27.4938    8.0825 H   0  0  0  0  0  0  0  0  0  0  0  0
   25.3566   27.0185    9.4657 H   0  0  0  0  0  0  0  0  0  0  0  0
   23.5684   26.7445    9.5242 H   0  0  0  0  0  0  0  0  0  0  0  0
   21.8219   27.8956    9.7504 H   0  0  0  0  0  0  0  0  0  0  0  0
   21.8358   24.3307    9.2051 H   0  0  0  0  0  0  0  0  0  0  0  0
   21.4806   25.9544    8.4921 H   0  0  0  0  0  0  0  0  0  0  0  0
   20.2282   25.1136    9.4805 H   0  0  0  0  0  0  0  0  0  0  0  0
   18.6852   27.6627   14.6000 H   0  0  0  0  0  0  0  0  0  0  0  0
   17.7262   29.1550   14.4147 H   0  0  0  0  0  0  0  0  0  0  0  0
   18.9718   26.1766   12.7082 H   0  0  0  0  0  0  0  0  0  0  0  0
   18.4652   25.6097   10.3609 H   0  0  0  0  0  0  0  0  0  0  0  0
   17.4828   27.3108    8.8504 H   0  0  0  0  0  0  0  0  0  0  0  0
   16.9917   29.5859    9.6999 H   0  0  0  0  0  0  0  0  0  0  0  0
   17.4717   30.1649   12.0410 H   0  0  0  0  0  0  0  0  0  0  0  0
  2  1  1  0
  3  2  1  0
  4  3  2  0
  5  4  1  0
  6  5  2  0
  7  6  1  0
  8  7  2  0
  8  3  1  0
  9  6  1  0
 10  9  2  0
 11  9  2  0
  9 12  1  0
 13 12  1  0
 14 13  1  0
 14 15  1  0
 16 14  1  0
 17 12  1  0
 18 17  1  0
 18 19  1  0
 20 18  1  0
 21 20  1  0
 22 21  1  0
 23 22  1  0
 24 22  2  0
 25 23  1  0
 25 26  1  0
 27 25  1  0
 28 27  1  0
 30 29  1  0
 23 30  1  0
 31 29  2  0
 32 29  1  0
 20 33  1  0
 35 34  2  0
 36 35  1  0
 37 36  2  0
 38 37  1  0
 39 38  2  0
 39 34  1  0
 39 33  1  0
  1 40  1  0
  1 41  1  0
  1 42  1  0
  4 43  1  0
  5 44  1  0
  7 45  1  0
  8 46  1  0
 13 47  1  0
 13 48  1  0
 14 49  1  0
 15 50  1  0
 15 51  1  0
 15 52  1  0
 16 53  1  0
 16 54  1  0
 16 55  1  0
 17 56  1  0
 17 57  1  0
 18 58  1  6
 19 59  1  0
 20 60  1  6
 21 61  1  0
 23 62  1  1
 25 63  1  1
 26 64  1  0
 26 65  1  0
 26 66  1  0
 27 67  1  0
 27 68  1  0
 28 69  1  0
 28 70  1  0
 28 71  1  0
 30 72  1  0
 32 73  1  0
 32 74  1  0
 32 75  1  0
 33 76  1  0
 33 77  1  0
 34 78  1  0
 35 79  1  0
 36 80  1  0
 37 81  1  0
 38 82  1  0
M  END
