
     RDKit          3D

 66 68  0  0  0  0  0  0  0  0999 V2000
   15.7337   28.3001    7.5361 P   0  0  2  0  0  0  0  0  0  0  0  0
   15.1132   26.5524    9.6973 P   0  0  2  0  0  0  0  0  0  0  0  0
   16.5950   31.7595   11.5945 C   0  0  0  0  0  0  0  0  0  0  0  0
   15.2848   31.0824   11.8087 C   0  0  0  0  0  0  0  0  0  0  0  0
   14.2340   31.7689   11.8972 O   0  0  0  0  0  0  0  0  0  0  0  0
   11.2375   25.8517   13.2200 C   0  0  0  0  0  0  0  0  0  0  0  0
   11.1491   24.7438   12.3642 O   0  0  0  0  0  0  0  0  0  0  0  0
   12.5311   26.6110   12.9408 C   0  0  1  0  0  0  0  0  0  0  0  0
   12.3778   27.3012   11.7109 O   0  0  0  0  0  0  0  0  0  0  0  0
   12.8418   27.6156   14.0687 C   0  0  1  0  0  0  0  0  0  0  0  0
   12.9761   26.9701   15.3080 O   0  0  0  0  0  0  0  0  0  0  0  0
   14.1045   28.4297   13.7317 C   0  0  2  0  0  0  0  0  0  0  0  0
   14.2997   29.4549   14.6760 O   0  0  0  0  0  0  0  0  0  0  0  0
   13.9699   29.0114   12.3221 C   0  0  1  0  0  0  0  0  0  0  0  0
   15.2208   29.6656   11.9382 N   0  0  0  0  0  0  0  0  0  0  0  0
   18.6948   24.8024    4.1811 O   0  0  0  0  0  0  0  0  0  0  0  0
   13.5922   27.9112   11.3235 C   0  0  1  0  0  0  0  0  0  0  0  0
   14.6344   26.9386   11.2766 O   0  0  0  0  0  0  0  0  0  0  0  0
   17.0216   26.4371    3.3957 C   0  0  1  0  0  0  0  0  0  0  0  0
   17.7934   27.6718    3.1128 N   0  0  0  0  0  0  0  0  0  0  0  0
   17.0739   28.8382    7.9882 O   0  0  0  0  0  0  0  0  0  0  0  0
   14.3533   25.3333    9.2199 O   0  0  0  0  0  0  0  0  0  0  0  0
   18.4561   27.8452    1.9179 C   0  0  0  0  0  0  0  0  0  0  0  0
   17.5950   25.6016    4.5407 C   0  0  1  0  0  0  0  0  0  0  0  0
   18.4868   26.9286    1.0509 O   0  0  0  0  0  0  0  0  0  0  0  0
   14.9051   29.5223    6.7323 O   0  0  0  0  0  0  0  0  0  0  0  0
   16.7565   26.2130    9.7610 O   0  0  0  0  0  0  0  0  0  0  0  0
   16.3711   24.7908    4.9578 C   0  0  2  0  0  0  0  0  0  0  0  0
   19.0864   29.0216    1.6504 N   0  0  0  0  0  0  0  0  0  0  0  0
   14.7027   27.9123    8.7878 O   0  0  0  0  0  0  0  0  0  0  0  0
   16.2018   23.6358    4.1661 O   0  0  0  0  0  0  0  0  0  0  0  0
   19.0730   30.0502    2.5350 C   0  0  0  0  0  0  0  0  0  0  0  0
   15.2259   25.7848    4.6736 C   0  0  2  0  0  0  0  0  0  0  0  0
   19.6567   31.1295    2.2526 O   0  0  0  0  0  0  0  0  0  0  0  0
   15.6894   26.7568    3.7435 O   0  0  0  0  0  0  0  0  0  0  0  0
   18.4154   29.9015    3.7514 C   0  0  0  0  0  0  0  0  0  0  0  0
   14.7735   26.5057    5.9544 C   0  0  0  0  0  0  0  0  0  0  0  0
   15.9525   26.9274    6.5968 O   0  0  0  0  0  0  0  0  0  0  0  0
   17.7858   28.6933    4.0238 C   0  0  0  0  0  0  0  0  0  0  0  0
   17.1233   31.2871   10.7399 H   0  0  0  0  0  0  0  0  0  0  0  0
   16.4469   32.8377   11.3722 H   0  0  0  0  0  0  0  0  0  0  0  0
   17.2162   31.6597   12.5087 H   0  0  0  0  0  0  0  0  0  0  0  0
   10.3644   26.5147   13.0383 H   0  0  0  0  0  0  0  0  0  0  0  0
   11.1944   25.5147   14.2810 H   0  0  0  0  0  0  0  0  0  0  0  0
   11.7409   24.0416   12.7418 H   0  0  0  0  0  0  0  0  0  0  0  0
   13.3397   25.8460   12.8899 H   0  0  0  0  0  0  0  0  0  0  0  0
   11.9812   28.3174   14.1468 H   0  0  0  0  0  0  0  0  0  0  0  0
   13.7303   26.3284   15.2324 H   0  0  0  0  0  0  0  0  0  0  0  0
   14.9904   27.7569   13.7659 H   0  0  0  0  0  0  0  0  0  0  0  0
   15.2711   29.5091   14.8753 H   0  0  0  0  0  0  0  0  0  0  0  0
   13.1234   29.7346   12.3273 H   0  0  0  0  0  0  0  0  0  0  0  0
   16.0962   29.1011   11.8479 H   0  0  0  0  0  0  0  0  0  0  0  0
   18.4845   24.3413    3.3281 H   0  0  0  0  0  0  0  0  0  0  0  0
   13.3581   28.4434   10.3885 H   0  0  0  0  0  0  0  0  0  0  0  0
   16.9611   25.8001    2.4846 H   0  0  0  0  0  0  0  0  0  0  0  0
   17.9193   26.2592    5.3730 H   0  0  0  0  0  0  0  0  0  0  0  0
   15.4961   29.7863    5.9837 H   0  0  0  0  0  0  0  0  0  0  0  0
   17.0837   26.3700    8.8395 H   0  0  0  0  0  0  0  0  0  0  0  0
   16.4274   24.5051    6.0356 H   0  0  0  0  0  0  0  0  0  0  0  0
   19.5851   29.1394    0.7385 H   0  0  0  0  0  0  0  0  0  0  0  0
   16.7717   22.9287    4.5670 H   0  0  0  0  0  0  0  0  0  0  0  0
   14.3484   25.2577    4.2384 H   0  0  0  0  0  0  0  0  0  0  0  0
   18.3935   30.7066    4.4756 H   0  0  0  0  0  0  0  0  0  0  0  0
   14.0967   27.3435    5.6719 H   0  0  0  0  0  0  0  0  0  0  0  0
   14.2250   25.7973    6.6112 H   0  0  0  0  0  0  0  0  0  0  0  0
   17.2741   28.5810    4.9669 H   0  0  0  0  0  0  0  0  0  0  0  0
  4  3  1  0
  5  4  2  0
  7  6  1  0
  8  6  1  0
  9  8  1  0
 10  8  1  0
 10 11  1  0
 12 10  1  0
 12 13  1  0
 14 12  1  0
 14 15  1  0
 15  4  1  0
 17 14  1  0
 17  9  1  0
 17 18  1  0
  2 18  1  1
 19 20  1  0
 21  1  2  0
 22  2  2  0
 23 20  1  0
 24 16  1  0
 24 19  1  0
 25 23  2  0
  1 26  1  6
 27  2  1  0
 28 24  1  0
 29 23  1  0
 30  2  1  0
 30  1  1  0
 28 31  1  0
 32 29  1  0
 33 28  1  0
 34 32  2  0
 35 33  1  0
 35 19  1  0
 36 32  1  0
 33 37  1  0
 38 37  1  0
 38  1  1  0
 39 36  2  0
 39 20  1  0
  3 40  1  0
  3 41  1  0
  3 42  1  0
  6 43  1  0
  6 44  1  0
  7 45  1  0
  8 46  1  6
 10 47  1  1
 11 48  1  0
 12 49  1  6
 13 50  1  0
 14 51  1  1
 15 52  1  0
 16 53  1  0
 17 54  1  6
 19 55  1  6
 24 56  1  1
 26 57  1  0
 27 58  1  0
 28 59  1  1
 29 60  1  0
 31 61  1  0
 33 62  1  6
 36 63  1  0
 37 64  1  0
 37 65  1  0
 39 66  1  0
M  END
