
     RDKit          3D

 33 32  0  0  0  0  0  0  0  0999 V2000
   15.5704    8.9728   23.0534 P   0  0  0  0  0  0  0  0  0  0  0  0
   16.0794   16.9314   18.4427 C   0  0  0  0  0  0  0  0  0  0  0  0
   16.3744   17.5023   17.1992 O   0  0  0  0  0  0  0  0  0  0  0  0
   15.1681   15.7506   18.2894 C   0  0  0  0  0  0  0  0  0  0  0  0
   14.6153   15.5354   17.2176 O   0  0  0  0  0  0  0  0  0  0  0  0
   15.0415   14.7855   19.4394 C   0  0  1  0  0  0  0  0  0  0  0  0
   13.7673   14.9030   20.0355 O   0  0  0  0  0  0  0  0  0  0  0  0
   15.2814   13.3180   19.0103 C   0  0  2  0  0  0  0  0  0  0  0  0
   14.1163   12.7988   18.4116 O   0  0  0  0  0  0  0  0  0  0  0  0
   15.6753   12.4625   20.2317 C   0  0  2  0  0  0  0  0  0  0  0  0
   16.8017   13.0419   20.8506 O   0  0  0  0  0  0  0  0  0  0  0  0
   16.0404   11.0322   19.8159 C   0  0  2  0  0  0  0  0  0  0  0  0
   14.9399   10.4012   19.2047 O   0  0  0  0  0  0  0  0  0  0  0  0
   16.4847   10.2026   21.0204 C   0  0  0  0  0  0  0  0  0  0  0  0
   15.3939   10.1820   21.8966 O   0  0  0  0  0  0  0  0  0  0  0  0
   16.7827    8.1163   22.7735 O   0  0  0  0  0  0  0  0  0  0  0  0
   14.1804    8.0415   22.9446 O   0  0  0  0  0  0  0  0  0  0  0  0
   15.6768    9.6769   24.5728 O   0  0  0  0  0  0  0  0  0  0  0  0
   17.0333   16.6000   18.9047 H   0  0  0  0  0  0  0  0  0  0  0  0
   15.6120   17.6832   19.1184 H   0  0  0  0  0  0  0  0  0  0  0  0
   15.6015   18.0777   16.9585 H   0  0  0  0  0  0  0  0  0  0  0  0
   15.8302   15.0989   20.1618 H   0  0  0  0  0  0  0  0  0  0  0  0
   13.8479   15.5445   20.7892 H   0  0  0  0  0  0  0  0  0  0  0  0
   16.1332   13.2633   18.2918 H   0  0  0  0  0  0  0  0  0  0  0  0
   14.0841   13.1600   17.4875 H   0  0  0  0  0  0  0  0  0  0  0  0
   14.8060   12.4278   20.9338 H   0  0  0  0  0  0  0  0  0  0  0  0
   16.7279   14.0259   20.7399 H   0  0  0  0  0  0  0  0  0  0  0  0
   16.8969   11.0900   19.0999 H   0  0  0  0  0  0  0  0  0  0  0  0
   15.2990    9.7792   18.5190 H   0  0  0  0  0  0  0  0  0  0  0  0
   17.3601   10.6801   21.5145 H   0  0  0  0  0  0  0  0  0  0  0  0
   16.7552    9.1803   20.6721 H   0  0  0  0  0  0  0  0  0  0  0  0
   13.4437    8.6585   23.1845 H   0  0  0  0  0  0  0  0  0  0  0  0
   16.1130    8.9911   25.1387 H   0  0  0  0  0  0  0  0  0  0  0  0
  3  2  1  0
  4  2  1  0
  5  4  2  0
  6  4  1  0
  6  7  1  0
  8  6  1  0
  8  9  1  0
 10  8  1  0
 10 11  1  0
 12 10  1  0
 12 13  1  0
 14 12  1  0
 15 14  1  0
 15  1  1  0
 16  1  2  0
 17  1  1  0
 18  1  1  0
  2 19  1  0
  2 20  1  0
  3 21  1  0
  6 22  1  1
  7 23  1  0
  8 24  1  6
  9 25  1  0
 10 26  1  1
 11 27  1  0
 12 28  1  6
 13 29  1  0
 14 30  1  0
 14 31  1  0
 17 32  1  0
 18 33  1  0
M  END
