
     RDKit          3D

 64 68  0  0  0  0  0  0  0  0999 V2000
   19.5242   23.0319    3.5056 Cl  0  0  0  0  0  0  0  0  0  0  0  0
   12.6959   23.9983    3.7859 N   0  0  0  0  0  0  0  0  0  0  0  0
   13.7160   24.5315    3.0646 C   0  0  0  0  0  0  0  0  0  0  0  0
   13.3157   25.4742    2.1762 N   0  0  0  0  0  0  0  0  0  0  0  0
   11.5941   24.6250    3.3167 C   0  0  0  0  0  0  0  0  0  0  0  0
   11.9790   25.5096    2.3470 C   0  0  0  0  0  0  0  0  0  0  0  0
   11.8786   21.8124    4.4712 C   0  0  0  0  0  0  0  0  0  0  0  0
   12.8226   22.9284    4.7945 C   0  0  2  0  0  0  0  0  0  0  0  0
   10.2492   24.4637    3.6722 C   0  0  0  0  0  0  0  0  0  0  0  0
   11.5163   21.6625    3.1036 N   0  0  0  0  0  0  0  0  0  0  0  0
   11.0550   26.3000    1.6642 C   0  0  0  0  0  0  0  0  0  0  0  0
    9.2962   25.2535    3.0010 C   0  0  0  0  0  0  0  0  0  0  0  0
   10.6806   20.6150    2.6613 C   0  0  0  0  0  0  0  0  0  0  0  0
    8.2194   17.3299    1.5103 C   0  0  0  0  0  0  0  0  0  0  0  0
   15.1181   24.1186    3.2239 C   0  0  0  0  0  0  0  0  0  0  0  0
    9.6975   26.1622    2.0034 C   0  0  0  0  0  0  0  0  0  0  0  0
    9.0728   18.4650    1.9000 C   0  0  0  0  0  0  0  0  0  0  0  0
    8.4868   19.6817    2.2904 C   0  0  0  0  0  0  0  0  0  0  0  0
    9.2840   20.7595    2.6905 C   0  0  0  0  0  0  0  0  0  0  0  0
   11.4649   20.9882    5.3257 O   0  0  0  0  0  0  0  0  0  0  0  0
    8.7177   16.1923    1.3110 O   0  0  0  0  0  0  0  0  0  0  0  0
   11.2692   19.4123    2.2727 C   0  0  0  0  0  0  0  0  0  0  0  0
   10.4712   18.3403    1.8924 C   0  0  0  0  0  0  0  0  0  0  0  0
   13.0158   23.4634    6.2530 C   0  0  0  0  0  0  0  0  0  0  0  0
   15.6438   23.1024    2.4174 C   0  0  0  0  0  0  0  0  0  0  0  0
   15.9591   24.8111    4.1106 C   0  0  0  0  0  0  0  0  0  0  0  0
    6.8509   17.5072    1.3619 O   0  0  0  0  0  0  0  0  0  0  0  0
   17.8313   23.4615    3.3918 C   0  0  0  0  0  0  0  0  0  0  0  0
   16.9967   22.7703    2.5081 C   0  0  0  0  0  0  0  0  0  0  0  0
   17.3148   24.4905    4.1847 C   0  0  0  0  0  0  0  0  0  0  0  0
    8.6451   22.0569    3.1162 C   0  0  0  0  0  0  0  0  0  0  0  0
   13.9445   22.6022    7.1348 C   0  0  0  0  0  0  0  0  0  0  0  0
   13.3807   24.9526    6.3955 C   0  0  0  0  0  0  0  0  0  0  0  0
   13.2769   25.3931    7.8584 C   0  0  0  0  0  0  0  0  0  0  0  0
   13.8052   23.0217    8.6021 C   0  0  0  0  0  0  0  0  0  0  0  0
   14.1244   24.5100    8.7795 C   0  0  0  0  0  0  0  0  0  0  0  0
    7.9825   25.1587    3.3190 F   0  0  0  0  0  0  0  0  0  0  0  0
    8.7612   26.9090    1.3751 F   0  0  0  0  0  0  0  0  0  0  0  0
   13.7753   22.3993    4.6031 H   0  0  0  0  0  0  0  0  0  0  0  0
    9.9469   23.7732    4.4477 H   0  0  0  0  0  0  0  0  0  0  0  0
   11.8443   22.3451    2.3846 H   0  0  0  0  0  0  0  0  0  0  0  0
   11.3724   26.9956    0.8981 H   0  0  0  0  0  0  0  0  0  0  0  0
    7.4086   19.7870    2.2983 H   0  0  0  0  0  0  0  0  0  0  0  0
   12.3475   19.3069    2.2722 H   0  0  0  0  0  0  0  0  0  0  0  0
   10.9457   17.4135    1.5947 H   0  0  0  0  0  0  0  0  0  0  0  0
   12.0081   23.3681    6.7272 H   0  0  0  0  0  0  0  0  0  0  0  0
   15.0095   22.5752    1.7153 H   0  0  0  0  0  0  0  0  0  0  0  0
   15.5672   25.6060    4.7329 H   0  0  0  0  0  0  0  0  0  0  0  0
    6.1949   17.0282    1.9673 H   0  0  0  0  0  0  0  0  0  0  0  0
   17.3971   21.9793    1.8868 H   0  0  0  0  0  0  0  0  0  0  0  0
   17.9590   25.0310    4.8663 H   0  0  0  0  0  0  0  0  0  0  0  0
    8.7776   22.8159    2.3173 H   0  0  0  0  0  0  0  0  0  0  0  0
    7.5584   21.9295    3.3080 H   0  0  0  0  0  0  0  0  0  0  0  0
    9.1144   22.4269    4.0523 H   0  0  0  0  0  0  0  0  0  0  0  0
   15.0004   22.7108    6.8026 H   0  0  0  0  0  0  0  0  0  0  0  0
   13.6643   21.5304    7.0757 H   0  0  0  0  0  0  0  0  0  0  0  0
   14.4071   25.1417    6.0107 H   0  0  0  0  0  0  0  0  0  0  0  0
   12.6460   25.5793    5.8488 H   0  0  0  0  0  0  0  0  0  0  0  0
   12.2147   25.3519    8.1875 H   0  0  0  0  0  0  0  0  0  0  0  0
   13.6171   26.4473    7.9488 H   0  0  0  0  0  0  0  0  0  0  0  0
   12.7726   22.8145    8.9607 H   0  0  0  0  0  0  0  0  0  0  0  0
   14.5061   22.4220    9.2219 H   0  0  0  0  0  0  0  0  0  0  0  0
   13.9416   24.8007    9.8364 H   0  0  0  0  0  0  0  0  0  0  0  0
   15.2016   24.6823    8.5620 H   0  0  0  0  0  0  0  0  0  0  0  0
  3  2  1  0
  4  3  2  0
  5  2  1  0
  6  5  2  0
  6  4  1  0
  8  7  1  0
  8  2  1  0
  9  5  1  0
 10  7  1  0
 11  6  1  0
 12  9  2  0
 13 10  1  0
 15  3  1  0
 16 12  1  0
 16 11  2  0
 17 14  1  0
 18 17  2  0
 19 18  1  0
 19 13  2  0
 20  7  2  0
 21 14  2  0
 22 13  1  0
 23 22  2  0
 23 17  1  0
 24  8  1  0
 25 15  2  0
 26 15  1  0
 27 14  1  0
 28  1  1  0
 29 25  1  0
 29 28  2  0
 30 26  2  0
 30 28  1  0
 31 19  1  0
 24 32  1  0
 33 24  1  0
 34 33  1  0
 35 32  1  0
 36 35  1  0
 36 34  1  0
 37 12  1  0
 38 16  1  0
  8 39  1  6
  9 40  1  0
 10 41  1  0
 11 42  1  0
 18 43  1  0
 22 44  1  0
 23 45  1  0
 24 46  1  0
 25 47  1  0
 26 48  1  0
 27 49  1  0
 29 50  1  0
 30 51  1  0
 31 52  1  0
 31 53  1  0
 31 54  1  0
 32 55  1  0
 32 56  1  0
 33 57  1  0
 33 58  1  0
 34 59  1  0
 34 60  1  0
 35 61  1  0
 35 62  1  0
 36 63  1  0
 36 64  1  0
M  END
