
     RDKit          3D

 64 68  0  0  0  0  0  0  0  0999 V2000
   20.3168   23.7429    2.7723 Cl  0  0  0  0  0  0  0  0  0  0  0  0
   13.6559   25.0466    3.5303 N   0  0  0  0  0  0  0  0  0  0  0  0
   14.6097   25.6422    2.7683 C   0  0  0  0  0  0  0  0  0  0  0  0
   14.1297   26.6334    1.9776 N   0  0  0  0  0  0  0  0  0  0  0  0
   12.5133   25.6837    3.1905 C   0  0  0  0  0  0  0  0  0  0  0  0
   12.8103   26.6354    2.2539 C   0  0  0  0  0  0  0  0  0  0  0  0
   12.9205   22.8077    4.1322 C   0  0  0  0  0  0  0  0  0  0  0  0
   13.8740   23.9161    4.4535 C   0  0  2  0  0  0  0  0  0  0  0  0
   11.2026   25.4774    3.6383 C   0  0  0  0  0  0  0  0  0  0  0  0
   12.5729   22.6455    2.7622 N   0  0  0  0  0  0  0  0  0  0  0  0
   11.8263   27.4527    1.6985 C   0  0  0  0  0  0  0  0  0  0  0  0
   10.1905   26.2928    3.0967 C   0  0  0  0  0  0  0  0  0  0  0  0
   11.7300   21.6028    2.3223 C   0  0  0  0  0  0  0  0  0  0  0  0
    9.2502   18.3300    1.1760 C   0  0  0  0  0  0  0  0  0  0  0  0
   16.0246   25.2433    2.7905 C   0  0  0  0  0  0  0  0  0  0  0  0
   10.5014   27.2706    2.1327 C   0  0  0  0  0  0  0  0  0  0  0  0
   10.1099   19.4609    1.5641 C   0  0  0  0  0  0  0  0  0  0  0  0
    9.5304   20.6722    1.9803 C   0  0  0  0  0  0  0  0  0  0  0  0
   10.3340   21.7457    2.3791 C   0  0  0  0  0  0  0  0  0  0  0  0
   12.4865   21.9990    4.9914 O   0  0  0  0  0  0  0  0  0  0  0  0
    9.7455   17.1954    0.9534 O   0  0  0  0  0  0  0  0  0  0  0  0
   12.3121   20.4055    1.9080 C   0  0  0  0  0  0  0  0  0  0  0  0
   11.5079   19.3376    1.5292 C   0  0  0  0  0  0  0  0  0  0  0  0
   14.1754   24.3589    5.9246 C   0  0  0  0  0  0  0  0  0  0  0  0
   16.5666   24.6516    3.9374 C   0  0  0  0  0  0  0  0  0  0  0  0
   16.8066   25.3594    1.6293 C   0  0  0  0  0  0  0  0  0  0  0  0
    7.8791   18.5079    1.0550 O   0  0  0  0  0  0  0  0  0  0  0  0
   18.6613   24.3110    2.7712 C   0  0  0  0  0  0  0  0  0  0  0  0
   17.8855   24.1938    3.9286 C   0  0  0  0  0  0  0  0  0  0  0  0
   18.1177   24.8831    1.6174 C   0  0  0  0  0  0  0  0  0  0  0  0
    9.7021   23.0370    2.8325 C   0  0  0  0  0  0  0  0  0  0  0  0
   13.5818   23.4338    7.0078 C   0  0  0  0  0  0  0  0  0  0  0  0
   15.6427   24.6890    6.2554 C   0  0  0  0  0  0  0  0  0  0  0  0
   15.7464   25.3533    7.6312 C   0  0  0  0  0  0  0  0  0  0  0  0
   13.6523   24.1218    8.3754 C   0  0  0  0  0  0  0  0  0  0  0  0
   15.0956   24.5006    8.7247 C   0  0  0  0  0  0  0  0  0  0  0  0
    8.9072   26.1557    3.5091 F   0  0  0  0  0  0  0  0  0  0  0  0
    9.5099   28.0406    1.6295 F   0  0  0  0  0  0  0  0  0  0  0  0
   14.8148   23.4164    4.1542 H   0  0  0  0  0  0  0  0  0  0  0  0
   10.9704   24.7334    4.3880 H   0  0  0  0  0  0  0  0  0  0  0  0
   12.9178   23.3153    2.0391 H   0  0  0  0  0  0  0  0  0  0  0  0
   12.0742   28.2014    0.9574 H   0  0  0  0  0  0  0  0  0  0  0  0
    8.4524   20.7763    2.0094 H   0  0  0  0  0  0  0  0  0  0  0  0
   13.3902   20.3012    1.8863 H   0  0  0  0  0  0  0  0  0  0  0  0
   11.9775   18.4150    1.2112 H   0  0  0  0  0  0  0  0  0  0  0  0
   13.6287   25.3259    6.0486 H   0  0  0  0  0  0  0  0  0  0  0  0
   15.9669   24.5380    4.8322 H   0  0  0  0  0  0  0  0  0  0  0  0
   16.3963   25.8062    0.7322 H   0  0  0  0  0  0  0  0  0  0  0  0
    7.3420   17.9742    0.3820 H   0  0  0  0  0  0  0  0  0  0  0  0
   18.3020   23.7427    4.8202 H   0  0  0  0  0  0  0  0  0  0  0  0
   18.7139   24.9709    0.7181 H   0  0  0  0  0  0  0  0  0  0  0  0
    9.8194   23.8060    2.0409 H   0  0  0  0  0  0  0  0  0  0  0  0
    8.6193   22.9063    3.0427 H   0  0  0  0  0  0  0  0  0  0  0  0
   10.1884   23.3958    3.7644 H   0  0  0  0  0  0  0  0  0  0  0  0
   14.1335   22.4685    7.0342 H   0  0  0  0  0  0  0  0  0  0  0  0
   12.5115   23.2234    6.8053 H   0  0  0  0  0  0  0  0  0  0  0  0
   16.2660   23.7681    6.2269 H   0  0  0  0  0  0  0  0  0  0  0  0
   16.0359   25.4390    5.5383 H   0  0  0  0  0  0  0  0  0  0  0  0
   15.2543   26.3509    7.6034 H   0  0  0  0  0  0  0  0  0  0  0  0
   16.8175   25.5127    7.8814 H   0  0  0  0  0  0  0  0  0  0  0  0
   13.0148   25.0335    8.3761 H   0  0  0  0  0  0  0  0  0  0  0  0
   13.2582   23.4318    9.1524 H   0  0  0  0  0  0  0  0  0  0  0  0
   15.1051   25.0632    9.6830 H   0  0  0  0  0  0  0  0  0  0  0  0
   15.6929   23.5736    8.8699 H   0  0  0  0  0  0  0  0  0  0  0  0
  3  2  1  0
  4  3  2  0
  5  2  1  0
  6  5  2  0
  6  4  1  0
  8  7  1  0
  8  2  1  0
  9  5  1  0
 10  7  1  0
 11  6  1  0
 12  9  2  0
 13 10  1  0
 15  3  1  0
 16 12  1  0
 16 11  2  0
 17 14  1  0
 18 17  2  0
 19 18  1  0
 19 13  2  0
 20  7  2  0
 21 14  2  0
 22 13  1  0
 23 22  2  0
 23 17  1  0
 24  8  1  0
 25 15  2  0
 26 15  1  0
 27 14  1  0
 28  1  1  0
 29 25  1  0
 29 28  2  0
 30 26  2  0
 30 28  1  0
 31 19  1  0
 24 32  1  0
 33 24  1  0
 34 33  1  0
 35 32  1  0
 36 35  1  0
 36 34  1  0
 37 12  1  0
 38 16  1  0
  8 39  1  6
  9 40  1  0
 10 41  1  0
 11 42  1  0
 18 43  1  0
 22 44  1  0
 23 45  1  0
 24 46  1  0
 25 47  1  0
 26 48  1  0
 27 49  1  0
 29 50  1  0
 30 51  1  0
 31 52  1  0
 31 53  1  0
 31 54  1  0
 32 55  1  0
 32 56  1  0
 33 57  1  0
 33 58  1  0
 34 59  1  0
 34 60  1  0
 35 61  1  0
 35 62  1  0
 36 63  1  0
 36 64  1  0
M  END
