
     RDKit          3D

 14 15  0  0  0  0  0  0  0  0999 V2000
   34.6173   63.7404   29.9438 N   0  0  0  0  0  0  0  0  0  0  0  0
   35.4405   63.3742   30.9809 C   0  0  0  0  0  0  0  0  0  0  0  0
   36.7614   63.1038   30.7621 N   0  0  0  0  0  0  0  0  0  0  0  0
   37.2084   63.2028   29.4905 C   0  0  0  0  0  0  0  0  0  0  0  0
   36.4160   63.5616   28.4487 C   0  0  0  0  0  0  0  0  0  0  0  0
   35.0772   63.8527   28.6657 C   0  0  0  0  0  0  0  0  0  0  0  0
   34.2235   64.2613   27.6556 O   0  0  0  0  0  0  0  0  0  0  0  0
   37.1424   63.5573   27.3204 N   0  0  0  0  0  0  0  0  0  0  0  0
   38.3830   63.1957   27.6358 N   0  0  0  0  0  0  0  0  0  0  0  0
   38.4537   62.9706   28.9705 C   0  0  0  0  0  0  0  0  0  0  0  0
   35.0387   63.3015   31.9821 H   0  0  0  0  0  0  0  0  0  0  0  0
   34.4385   65.0530   27.0622 H   0  0  0  0  0  0  0  0  0  0  0  0
   36.8193   63.7854   26.3546 H   0  0  0  0  0  0  0  0  0  0  0  0
   39.3423   62.6610   29.5039 H   0  0  0  0  0  0  0  0  0  0  0  0
  2  1  2  0
  3  2  1  0
  4  3  2  0
  5  4  1  0
  6  5  2  0
  6  1  1  0
  7  6  1  0
  8  5  1  0
  9  8  1  0
 10  9  2  0
 10  4  1  0
  2 11  1  0
  7 12  1  0
  8 13  1  0
 10 14  1  0
M  END
