
     RDKit          3D

 35 36  0  0  0  0  0  0  0  0999 V2000
   -2.6447    2.4863   24.3540 P   0  0  0  0  0  0  0  0  0  0  0  0
   -2.6692    0.1986   23.2183 C   0  0  0  0  0  0  0  0  0  0  0  0
   -2.7759    0.8073   24.4717 O   0  0  0  0  0  0  0  0  0  0  0  0
   -1.2891   -0.4675   23.1613 C   0  0  1  0  0  0  0  0  0  0  0  0
   -1.1737   -1.1862   21.9552 O   0  0  0  0  0  0  0  0  0  0  0  0
   -0.1327    0.5481   23.2558 C   0  0  1  0  0  0  0  0  0  0  0  0
    0.9245    0.0405   24.0435 O   0  0  0  0  0  0  0  0  0  0  0  0
    0.2757    0.7189   21.8115 C   0  0  1  0  0  0  0  0  0  0  0  0
    1.6418    1.0180   21.6781 O   0  0  0  0  0  0  0  0  0  0  0  0
   -0.0828   -0.6588   21.2409 C   0  0  2  0  0  0  0  0  0  0  0  0
   -0.4014   -0.6435   19.7937 N   0  0  0  0  0  0  0  0  0  0  0  0
    0.1892   -2.9853   19.5879 O   0  0  0  0  0  0  0  0  0  0  0  0
   -0.9505    0.4741   19.2037 C   0  0  0  0  0  0  0  0  0  0  0  0
   -1.1452    1.5248   19.8640 O   0  0  0  0  0  0  0  0  0  0  0  0
   -1.3044    0.4643   17.8933 N   0  0  0  0  0  0  0  0  0  0  0  0
   -1.1741   -0.6506   17.1397 C   0  0  0  0  0  0  0  0  0  0  0  0
   -1.5101   -0.6307   15.9274 O   0  0  0  0  0  0  0  0  0  0  0  0
   -0.6789   -1.8136   17.7114 C   0  0  0  0  0  0  0  0  0  0  0  0
   -0.2928   -1.7950   19.0493 C   0  0  0  0  0  0  0  0  0  0  0  0
   -1.5317    2.9115   23.4253 O   0  0  0  0  0  0  0  0  0  0  0  0
   -2.3034    3.0069   25.9160 O   0  0  0  0  0  0  0  0  0  0  0  0
   -4.1128    3.1335   23.8435 O   0  0  0  0  0  0  0  0  0  0  0  0
   -3.4534   -0.5818   23.0892 H   0  0  0  0  0  0  0  0  0  0  0  0
   -2.7568    0.9618   22.4190 H   0  0  0  0  0  0  0  0  0  0  0  0
   -1.2267   -1.1901   24.0058 H   0  0  0  0  0  0  0  0  0  0  0  0
   -0.4520    1.5233   23.6847 H   0  0  0  0  0  0  0  0  0  0  0  0
    1.1684   -0.8624   23.7110 H   0  0  0  0  0  0  0  0  0  0  0  0
   -0.3193    1.5475   21.3754 H   0  0  0  0  0  0  0  0  0  0  0  0
    1.8440    0.9661   20.7076 H   0  0  0  0  0  0  0  0  0  0  0  0
    0.7634   -1.3248   21.4755 H   0  0  0  0  0  0  0  0  0  0  0  0
    1.0060   -3.0495   20.1800 H   0  0  0  0  0  0  0  0  0  0  0  0
   -1.6999    1.3308   17.4606 H   0  0  0  0  0  0  0  0  0  0  0  0
   -0.5851   -2.7198   17.1247 H   0  0  0  0  0  0  0  0  0  0  0  0
   -1.9958    3.9422   25.8087 H   0  0  0  0  0  0  0  0  0  0  0  0
   -4.7778    2.7958   24.4951 H   0  0  0  0  0  0  0  0  0  0  0  0
  3  2  1  0
  3  1  1  0
  4  2  1  0
  5  4  1  0
  6  4  1  0
  6  7  1  0
  8  6  1  0
  8  9  1  0
 10  8  1  0
 10  5  1  0
 10 11  1  0
 13 11  1  0
 14 13  2  0
 15 13  1  0
 16 15  1  0
 17 16  2  0
 18 16  1  0
 19 18  2  0
 19 12  1  0
 19 11  1  0
 20  1  2  0
 21  1  1  0
 22  1  1  0
  2 23  1  0
  2 24  1  0
  4 25  1  1
  6 26  1  1
  7 27  1  0
  8 28  1  6
  9 29  1  0
 10 30  1  6
 12 31  1  0
 15 32  1  0
 18 33  1  0
 21 34  1  0
 22 35  1  0
M  END
