
     RDKit          3D

 35 36  0  0  0  0  0  0  0  0999 V2000
   24.7466   -1.1940    6.8933 P   0  0  0  0  0  0  0  0  0  0  0  0
   22.6445    0.0385    7.6835 C   0  0  0  0  0  0  0  0  0  0  0  0
   23.7500   -0.6753    8.1560 O   0  0  0  0  0  0  0  0  0  0  0  0
   21.8870    0.5490    8.9174 C   0  0  1  0  0  0  0  0  0  0  0  0
   20.8384    1.3947    8.5060 O   0  0  0  0  0  0  0  0  0  0  0  0
   21.3017   -0.5899    9.7726 C   0  0  1  0  0  0  0  0  0  0  0  0
   21.3886   -0.2832   11.1489 O   0  0  0  0  0  0  0  0  0  0  0  0
   19.8666   -0.6425    9.3063 C   0  0  1  0  0  0  0  0  0  0  0  0
   19.0017   -1.1028   10.3125 O   0  0  0  0  0  0  0  0  0  0  0  0
   19.6287    0.8299    8.9504 C   0  0  2  0  0  0  0  0  0  0  0  0
   18.5815    1.0398    7.9238 N   0  0  0  0  0  0  0  0  0  0  0  0
   18.3894    3.3757    8.5310 O   0  0  0  0  0  0  0  0  0  0  0  0
   18.2371    0.0295    7.0538 C   0  0  0  0  0  0  0  0  0  0  0  0
   18.7514   -1.1128    7.1543 O   0  0  0  0  0  0  0  0  0  0  0  0
   17.3380    0.2463    6.0596 N   0  0  0  0  0  0  0  0  0  0  0  0
   16.7857    1.4659    5.8659 C   0  0  0  0  0  0  0  0  0  0  0  0
   15.9539    1.6378    4.9375 O   0  0  0  0  0  0  0  0  0  0  0  0
   17.1449    2.5231    6.6900 C   0  0  0  0  0  0  0  0  0  0  0  0
   18.0498    2.2925    7.7247 C   0  0  0  0  0  0  0  0  0  0  0  0
   24.0704   -2.2032    5.9955 O   0  0  0  0  0  0  0  0  0  0  0  0
   26.0667   -1.9073    7.6502 O   0  0  0  0  0  0  0  0  0  0  0  0
   25.2646    0.1306    5.9925 O   0  0  0  0  0  0  0  0  0  0  0  0
   22.9705    0.9101    7.0714 H   0  0  0  0  0  0  0  0  0  0  0  0
   21.9921   -0.6274    7.0823 H   0  0  0  0  0  0  0  0  0  0  0  0
   22.5992    1.1503    9.5264 H   0  0  0  0  0  0  0  0  0  0  0  0
   21.8078   -1.5641    9.5939 H   0  0  0  0  0  0  0  0  0  0  0  0
   21.3493   -1.1237   11.6749 H   0  0  0  0  0  0  0  0  0  0  0  0
   19.8040   -1.3243    8.4329 H   0  0  0  0  0  0  0  0  0  0  0  0
   18.2558   -1.5639    9.8474 H   0  0  0  0  0  0  0  0  0  0  0  0
   19.3968    1.3522    9.8929 H   0  0  0  0  0  0  0  0  0  0  0  0
   18.2621    3.3940    9.5339 H   0  0  0  0  0  0  0  0  0  0  0  0
   17.0766   -0.5408    5.4219 H   0  0  0  0  0  0  0  0  0  0  0  0
   16.7216    3.5091    6.5392 H   0  0  0  0  0  0  0  0  0  0  0  0
   26.7467   -1.1890    7.7019 H   0  0  0  0  0  0  0  0  0  0  0  0
   25.3892    0.8547    6.6567 H   0  0  0  0  0  0  0  0  0  0  0  0
  3  2  1  0
  3  1  1  0
  4  2  1  0
  5  4  1  0
  6  4  1  0
  6  7  1  0
  8  6  1  0
  8  9  1  0
 10  8  1  0
 10  5  1  0
 10 11  1  0
 13 11  1  0
 14 13  2  0
 15 13  1  0
 16 15  1  0
 17 16  2  0
 18 16  1  0
 19 18  2  0
 19 12  1  0
 19 11  1  0
 20  1  2  0
 21  1  1  0
 22  1  1  0
  2 23  1  0
  2 24  1  0
  4 25  1  1
  6 26  1  1
  7 27  1  0
  8 28  1  6
  9 29  1  0
 10 30  1  1
 12 31  1  0
 15 32  1  0
 18 33  1  0
 21 34  1  0
 22 35  1  0
M  END
