
     RDKit          3D

 35 36  0  0  0  0  0  0  0  0999 V2000
   -3.2397    2.3238   24.7965 P   0  0  0  0  0  0  0  0  0  0  0  0
   -3.2363    0.0549   23.6232 C   0  0  0  0  0  0  0  0  0  0  0  0
   -3.3507    0.6416   24.8864 O   0  0  0  0  0  0  0  0  0  0  0  0
   -1.8482   -0.5934   23.5561 C   0  0  1  0  0  0  0  0  0  0  0  0
   -1.7238   -1.2907   22.3384 O   0  0  0  0  0  0  0  0  0  0  0  0
   -0.7042    0.4342   23.6680 C   0  0  1  0  0  0  0  0  0  0  0  0
    0.3587   -0.0735   24.4478 O   0  0  0  0  0  0  0  0  0  0  0  0
   -0.2973    0.6337   22.2269 C   0  0  1  0  0  0  0  0  0  0  0  0
    1.0652    0.9514   22.0992 O   0  0  0  0  0  0  0  0  0  0  0  0
   -0.6390   -0.7387   21.6335 C   0  0  2  0  0  0  0  0  0  0  0  0
   -0.9572   -0.7033   20.1865 N   0  0  0  0  0  0  0  0  0  0  0  0
    0.5287   -2.5710   19.7632 O   0  0  0  0  0  0  0  0  0  0  0  0
   -1.9205    0.1514   19.6964 C   0  0  0  0  0  0  0  0  0  0  0  0
   -2.5148    0.9587   20.4533 O   0  0  0  0  0  0  0  0  0  0  0  0
   -2.2588    0.1354   18.3820 N   0  0  0  0  0  0  0  0  0  0  0  0
   -1.6987   -0.7467   17.5241 C   0  0  0  0  0  0  0  0  0  0  0  0
   -2.0313   -0.7387   16.3107 O   0  0  0  0  0  0  0  0  0  0  0  0
   -0.7666   -1.6626   17.9899 C   0  0  0  0  0  0  0  0  0  0  0  0
   -0.4020   -1.6285   19.3335 C   0  0  0  0  0  0  0  0  0  0  0  0
   -2.1315    2.7775   23.8755 O   0  0  0  0  0  0  0  0  0  0  0  0
   -2.9053    2.8227   26.3670 O   0  0  0  0  0  0  0  0  0  0  0  0
   -4.7153    2.9617   24.2959 O   0  0  0  0  0  0  0  0  0  0  0  0
   -4.0110   -0.7326   23.4809 H   0  0  0  0  0  0  0  0  0  0  0  0
   -3.3328    0.8301   22.8365 H   0  0  0  0  0  0  0  0  0  0  0  0
   -1.7775   -1.3291   24.3886 H   0  0  0  0  0  0  0  0  0  0  0  0
   -1.0353    1.3984   24.1126 H   0  0  0  0  0  0  0  0  0  0  0  0
    0.6137   -0.9678   24.1007 H   0  0  0  0  0  0  0  0  0  0  0  0
   -0.9021    1.4621   21.8041 H   0  0  0  0  0  0  0  0  0  0  0  0
    1.4393    0.9447   23.0186 H   0  0  0  0  0  0  0  0  0  0  0  0
    0.2151   -1.3981   21.8576 H   0  0  0  0  0  0  0  0  0  0  0  0
    1.3158   -2.3584   20.3608 H   0  0  0  0  0  0  0  0  0  0  0  0
   -2.9777    0.8077   18.0275 H   0  0  0  0  0  0  0  0  0  0  0  0
   -0.3221   -2.3871   17.3178 H   0  0  0  0  0  0  0  0  0  0  0  0
   -3.4106    2.1959   26.9439 H   0  0  0  0  0  0  0  0  0  0  0  0
   -5.1967    3.1731   25.1352 H   0  0  0  0  0  0  0  0  0  0  0  0
  3  2  1  0
  3  1  1  0
  4  2  1  0
  5  4  1  0
  6  4  1  0
  6  7  1  0
  8  6  1  0
  8  9  1  0
 10  8  1  0
 10  5  1  0
 10 11  1  0
 13 11  1  0
 14 13  2  0
 15 13  1  0
 16 15  1  0
 17 16  2  0
 18 16  1  0
 19 18  2  0
 19 12  1  0
 19 11  1  0
 20  1  2  0
 21  1  1  0
 22  1  1  0
  2 23  1  0
  2 24  1  0
  4 25  1  1
  6 26  1  1
  7 27  1  0
  8 28  1  6
  9 29  1  0
 10 30  1  6
 12 31  1  0
 15 32  1  0
 18 33  1  0
 21 34  1  0
 22 35  1  0
M  END
