
     RDKit          3D

 43 45  0  0  0  0  0  0  0  0999 V2000
    5.1888   -1.5117   52.5855 Cl  0  0  0  0  0  0  0  0  0  0  0  0
   10.5740   -2.2481   51.6738 Cl  0  0  0  0  0  0  0  0  0  0  0  0
    5.6197   -4.4967   55.4409 C   0  0  0  0  0  0  0  0  0  0  0  0
    5.4378   -4.7214   56.8170 C   0  0  0  0  0  0  0  0  0  0  0  0
    4.5291   -5.6794   57.2763 O   0  0  0  0  0  0  0  0  0  0  0  0
    3.1900   -5.7379   56.7882 C   0  0  0  0  0  0  0  0  0  0  0  0
    2.4180   -4.5467   57.3306 C   0  0  0  0  0  0  0  0  0  0  0  0
    1.9196   -4.9806   58.6948 C   0  0  0  0  0  0  0  0  0  0  0  0
    2.0008   -6.5045   58.7253 C   0  0  0  0  0  0  0  0  0  0  0  0
    2.4780   -6.9426   57.3524 C   0  0  0  0  0  0  0  0  0  0  0  0
    6.1872   -3.9877   57.7399 C   0  0  0  0  0  0  0  0  0  0  0  0
    6.0104   -4.2222   59.1074 O   0  0  0  0  0  0  0  0  0  0  0  0
    6.7250   -3.5202   60.1205 C   0  0  0  0  0  0  0  0  0  0  0  0
    7.1074   -3.0364   57.2746 C   0  0  0  0  0  0  0  0  0  0  0  0
    7.2698   -2.8129   55.9122 C   0  0  0  0  0  0  0  0  0  0  0  0
    6.5207   -3.5449   54.9768 C   0  0  0  0  0  0  0  0  0  0  0  0
    6.6548   -3.3548   53.5196 C   0  0  0  0  0  0  0  0  0  0  0  0
    7.8750   -2.8783   52.9513 N   0  0  0  0  0  0  0  0  0  0  0  0
    5.6780   -3.6183   52.7619 O   0  0  0  0  0  0  0  0  0  0  0  0
    7.8809   -1.7764   52.0523 C   0  0  0  0  0  0  0  0  0  0  0  0
    6.6929   -1.0851   51.7881 C   0  0  0  0  0  0  0  0  0  0  0  0
    6.7142   -0.0188   50.8887 C   0  0  0  0  0  0  0  0  0  0  0  0
    7.8722    0.3395   50.2751 N   0  0  0  0  0  0  0  0  0  0  0  0
    9.0359   -0.3171   50.5179 C   0  0  0  0  0  0  0  0  0  0  0  0
    9.0652   -1.3894   51.4101 C   0  0  0  0  0  0  0  0  0  0  0  0
    5.0733   -5.0713   54.7107 H   0  0  0  0  0  0  0  0  0  0  0  0
    3.1720   -5.7981   55.6774 H   0  0  0  0  0  0  0  0  0  0  0  0
    1.5499   -4.3430   56.6651 H   0  0  0  0  0  0  0  0  0  0  0  0
    3.0126   -3.6147   57.4254 H   0  0  0  0  0  0  0  0  0  0  0  0
    2.5658   -4.5513   59.4923 H   0  0  0  0  0  0  0  0  0  0  0  0
    0.8749   -4.6353   58.8559 H   0  0  0  0  0  0  0  0  0  0  0  0
    2.7323   -6.8284   59.4985 H   0  0  0  0  0  0  0  0  0  0  0  0
    1.0107   -6.9537   58.9580 H   0  0  0  0  0  0  0  0  0  0  0  0
    1.6018   -7.1941   56.7137 H   0  0  0  0  0  0  0  0  0  0  0  0
    3.1500   -7.8263   57.4148 H   0  0  0  0  0  0  0  0  0  0  0  0
    6.1153   -3.4553   61.0466 H   0  0  0  0  0  0  0  0  0  0  0  0
    6.9343   -2.4903   59.7658 H   0  0  0  0  0  0  0  0  0  0  0  0
    7.6932   -4.0237   60.3275 H   0  0  0  0  0  0  0  0  0  0  0  0
    7.7069   -2.4520   57.9587 H   0  0  0  0  0  0  0  0  0  0  0  0
    7.9893   -2.0644   55.6269 H   0  0  0  0  0  0  0  0  0  0  0  0
    8.7508   -3.4381   52.9943 H   0  0  0  0  0  0  0  0  0  0  0  0
    5.8067    0.5304   50.6745 H   0  0  0  0  0  0  0  0  0  0  0  0
    9.9388   -0.0072   50.0083 H   0  0  0  0  0  0  0  0  0  0  0  0
  4  3  2  0
  5  4  1  0
  6  5  1  0
  7  6  1  0
  8  7  1  0
  9  8  1  0
 10  9  1  0
 10  6  1  0
 11  4  1  0
 12 11  1  0
 13 12  1  0
 14 11  2  0
 15 14  1  0
 16 15  2  0
 16  3  1  0
 17 16  1  0
 18 17  1  0
 19 17  2  0
 20 18  1  0
 21 20  2  0
 21  1  1  0
 22 21  1  0
 23 22  2  0
 24 23  1  0
 25  2  1  0
 25 24  2  0
 25 20  1  0
  3 26  1  0
  6 27  1  0
  7 28  1  0
  7 29  1  0
  8 30  1  0
  8 31  1  0
  9 32  1  0
  9 33  1  0
 10 34  1  0
 10 35  1  0
 13 36  1  0
 13 37  1  0
 13 38  1  0
 14 39  1  0
 15 40  1  0
 18 41  1  0
 22 42  1  0
 24 43  1  0
M  END
