
     RDKit          3D

 43 45  0  0  0  0  0  0  0  0999 V2000
    9.2384   -0.8429   53.0298 Cl  0  0  0  0  0  0  0  0  0  0  0  0
    4.3225   -3.2267   52.3053 Cl  0  0  0  0  0  0  0  0  0  0  0  0
    6.4646   -2.6281   56.7778 C   0  0  0  0  0  0  0  0  0  0  0  0
    6.2859   -2.8559   58.1538 C   0  0  0  0  0  0  0  0  0  0  0  0
    5.3800   -3.8167   58.6130 O   0  0  0  0  0  0  0  0  0  0  0  0
    4.3830   -4.3759   57.7597 C   0  0  0  0  0  0  0  0  0  0  0  0
    3.0907   -3.5969   57.9396 C   0  0  0  0  0  0  0  0  0  0  0  0
    2.4020   -4.2339   59.1302 C   0  0  0  0  0  0  0  0  0  0  0  0
    3.0419   -5.6062   59.3225 C   0  0  0  0  0  0  0  0  0  0  0  0
    4.0457   -5.7801   58.1971 C   0  0  0  0  0  0  0  0  0  0  0  0
    7.0357   -2.1226   59.0767 C   0  0  0  0  0  0  0  0  0  0  0  0
    6.8621   -2.3602   60.4440 O   0  0  0  0  0  0  0  0  0  0  0  0
    7.5774   -1.6588   61.4571 C   0  0  0  0  0  0  0  0  0  0  0  0
    7.9530   -1.1685   58.6114 C   0  0  0  0  0  0  0  0  0  0  0  0
    8.1122   -0.9419   57.2492 C   0  0  0  0  0  0  0  0  0  0  0  0
    7.3626   -1.6736   56.3138 C   0  0  0  0  0  0  0  0  0  0  0  0
    7.4935   -1.4802   54.8567 C   0  0  0  0  0  0  0  0  0  0  0  0
    6.7008   -2.2379   53.9421 N   0  0  0  0  0  0  0  0  0  0  0  0
    8.3166   -0.6314   54.4099 O   0  0  0  0  0  0  0  0  0  0  0  0
    6.7930   -2.0185   52.5400 C   0  0  0  0  0  0  0  0  0  0  0  0
    7.9090   -1.3619   52.0084 C   0  0  0  0  0  0  0  0  0  0  0  0
    7.9731   -1.1386   50.6327 C   0  0  0  0  0  0  0  0  0  0  0  0
    6.9631   -1.5495   49.8221 N   0  0  0  0  0  0  0  0  0  0  0  0
    5.8721   -2.1890   50.3173 C   0  0  0  0  0  0  0  0  0  0  0  0
    5.7629   -2.4361   51.6861 C   0  0  0  0  0  0  0  0  0  0  0  0
    5.9178   -3.2023   56.0476 H   0  0  0  0  0  0  0  0  0  0  0  0
    4.7307   -4.4029   56.7033 H   0  0  0  0  0  0  0  0  0  0  0  0
    2.4597   -3.7259   57.0323 H   0  0  0  0  0  0  0  0  0  0  0  0
    3.2270   -2.5106   58.1196 H   0  0  0  0  0  0  0  0  0  0  0  0
    2.5587   -3.6126   60.0399 H   0  0  0  0  0  0  0  0  0  0  0  0
    1.3097   -4.3275   58.9444 H   0  0  0  0  0  0  0  0  0  0  0  0
    3.5663   -5.6445   60.3030 H   0  0  0  0  0  0  0  0  0  0  0  0
    2.2768   -6.4124   59.2935 H   0  0  0  0  0  0  0  0  0  0  0  0
    3.5721   -6.3322   57.3545 H   0  0  0  0  0  0  0  0  0  0  0  0
    4.9485   -6.3342   58.5350 H   0  0  0  0  0  0  0  0  0  0  0  0
    8.2330   -0.8871   61.0009 H   0  0  0  0  0  0  0  0  0  0  0  0
    8.2153   -2.3776   62.0109 H   0  0  0  0  0  0  0  0  0  0  0  0
    6.8697   -1.1922   62.1748 H   0  0  0  0  0  0  0  0  0  0  0  0
    8.5527   -0.5842   59.2955 H   0  0  0  0  0  0  0  0  0  0  0  0
    8.8296   -0.1913   56.9639 H   0  0  0  0  0  0  0  0  0  0  0  0
    5.8896   -2.8039   54.2641 H   0  0  0  0  0  0  0  0  0  0  0  0
    8.8295   -0.6362   50.2025 H   0  0  0  0  0  0  0  0  0  0  0  0
    5.0845   -2.4988   49.6429 H   0  0  0  0  0  0  0  0  0  0  0  0
  4  3  2  0
  5  4  1  0
  6  5  1  0
  7  6  1  0
  8  7  1  0
  9  8  1  0
 10  9  1  0
 10  6  1  0
 11  4  1  0
 12 11  1  0
 13 12  1  0
 14 11  2  0
 15 14  1  0
 16 15  2  0
 16  3  1  0
 17 16  1  0
 18 17  1  0
 19 17  2  0
 20 18  1  0
 21 20  2  0
 21  1  1  0
 22 21  1  0
 23 22  2  0
 24 23  1  0
 25  2  1  0
 25 24  2  0
 25 20  1  0
  3 26  1  0
  6 27  1  0
  7 28  1  0
  7 29  1  0
  8 30  1  0
  8 31  1  0
  9 32  1  0
  9 33  1  0
 10 34  1  0
 10 35  1  0
 13 36  1  0
 13 37  1  0
 13 38  1  0
 14 39  1  0
 15 40  1  0
 18 41  1  0
 22 42  1  0
 24 43  1  0
M  END
