
     RDKit          3D

 41 43  0  0  0  0  0  0  0  0999 V2000
   28.8221   29.4985   36.8356 C   0  0  0  0  0  0  0  0  0  0  0  0
   24.6532   25.7383   36.5060 C   0  0  0  0  0  0  0  0  0  0  0  0
   27.7455   28.5568   36.8750 N   0  0  0  0  0  0  0  0  0  0  0  0
   24.8397   25.6367   35.1728 N   0  0  0  0  0  0  0  0  0  0  0  0
   30.1330   29.0522   37.0541 C   0  0  0  0  0  0  0  0  0  0  0  0
   23.7987   24.7885   37.3006 C   0  0  2  0  0  0  0  0  0  0  0  0
   25.2244   26.8445   37.0218 N   0  0  0  0  0  0  0  0  0  0  0  0
   24.5136   24.3584   38.4339 O   0  0  0  0  0  0  0  0  0  0  0  0
   31.2004   29.9490   36.9851 C   0  0  0  0  0  0  0  0  0  0  0  0
   23.3609   23.5731   36.4447 C   0  0  1  0  0  0  0  0  0  0  0  0
   22.2101   23.0086   37.0242 O   0  0  0  0  0  0  0  0  0  0  0  0
   30.9625   31.2990   36.7137 C   0  0  0  0  0  0  0  0  0  0  0  0
   23.0603   23.9800   34.9784 C   0  0  2  0  0  0  0  0  0  0  0  0
   22.6176   22.8636   34.2499 O   0  0  0  0  0  0  0  0  0  0  0  0
   29.6578   31.7536   36.5043 C   0  0  0  0  0  0  0  0  0  0  0  0
   24.3322   24.5597   34.3210 C   0  0  1  0  0  0  0  0  0  0  0  0
   28.5886   30.8574   36.5604 C   0  0  0  0  0  0  0  0  0  0  0  0
   24.0693   25.0445   32.8773 C   0  0  0  0  0  0  0  0  0  0  0  0
   24.3837   26.4059   32.7397 O   0  0  0  0  0  0  0  0  0  0  0  0
   26.5909   28.6952   35.9948 C   0  0  0  0  0  0  0  0  0  0  0  0
   25.8217   27.4208   35.9523 C   0  0  0  0  0  0  0  0  0  0  0  0
   25.6012   26.6847   34.8198 C   0  0  0  0  0  0  0  0  0  0  0  0
   27.9047   27.6544   37.3807 H   0  0  0  0  0  0  0  0  0  0  0  0
   30.3284   28.0078   37.2627 H   0  0  0  0  0  0  0  0  0  0  0  0
   22.8945   25.3583   37.6178 H   0  0  0  0  0  0  0  0  0  0  0  0
   23.8472   23.9739   39.0614 H   0  0  0  0  0  0  0  0  0  0  0  0
   32.2121   29.5998   37.1465 H   0  0  0  0  0  0  0  0  0  0  0  0
   24.1930   22.8276   36.4433 H   0  0  0  0  0  0  0  0  0  0  0  0
   22.1875   23.3019   37.9725 H   0  0  0  0  0  0  0  0  0  0  0  0
   31.7907   31.9942   36.6656 H   0  0  0  0  0  0  0  0  0  0  0  0
   22.2692   24.7682   34.9862 H   0  0  0  0  0  0  0  0  0  0  0  0
   23.4006   22.2654   34.1284 H   0  0  0  0  0  0  0  0  0  0  0  0
   29.4767   32.8001   36.2956 H   0  0  0  0  0  0  0  0  0  0  0  0
   25.1032   23.7585   34.2746 H   0  0  0  0  0  0  0  0  0  0  0  0
   27.5853   31.2278   36.3976 H   0  0  0  0  0  0  0  0  0  0  0  0
   23.0119   24.8482   32.5854 H   0  0  0  0  0  0  0  0  0  0  0  0
   24.6980   24.4616   32.1722 H   0  0  0  0  0  0  0  0  0  0  0  0
   24.7500   26.5263   31.8253 H   0  0  0  0  0  0  0  0  0  0  0  0
   25.9258   29.4980   36.3767 H   0  0  0  0  0  0  0  0  0  0  0  0
   26.9315   28.9667   34.9711 H   0  0  0  0  0  0  0  0  0  0  0  0
   25.9584   26.9043   33.8223 H   0  0  0  0  0  0  0  0  0  0  0  0
  3  1  1  0
  4  2  1  0
  5  1  2  0
  6  2  1  0
  7  2  2  0
  6  8  1  0
  9  5  1  0
 10  6  1  0
 10 11  1  0
 12  9  2  0
 13 10  1  0
 13 14  1  0
 15 12  1  0
 16 13  1  0
 16  4  1  0
 17 15  2  0
 17  1  1  0
 16 18  1  0
 19 18  1  0
 20  3  1  0
 21  7  1  0
 21 20  1  0
 22  4  1  0
 22 21  2  0
  3 23  1  0
  5 24  1  0
  6 25  1  1
  8 26  1  0
  9 27  1  0
 10 28  1  6
 11 29  1  0
 12 30  1  0
 13 31  1  1
 14 32  1  0
 15 33  1  0
 16 34  1  6
 17 35  1  0
 18 36  1  0
 18 37  1  0
 19 38  1  0
 20 39  1  0
 20 40  1  0
 22 41  1  0
M  END
