
     RDKit          3D

 34 35  0  0  0  0  0  0  0  0999 V2000
   18.5017    0.2679   25.4635 P   0  0  0  0  0  0  0  0  0  0  0  0
   17.3332    1.0727   25.9832 O   0  0  0  0  0  0  0  0  0  0  0  0
   18.5903    0.3216   23.7900 O   0  0  0  0  0  0  0  0  0  0  0  0
   18.4270   -1.3177   25.9980 O   0  0  0  0  0  0  0  0  0  0  0  0
   20.0325    2.2494   25.9865 C   0  0  0  0  0  0  0  0  0  0  0  0
   19.9354    0.8537   26.1092 O   0  0  0  0  0  0  0  0  0  0  0  0
   18.7242    2.8217   26.5461 C   0  0  1  0  0  0  0  0  0  0  0  0
   18.9036    4.1621   26.9387 O   0  0  0  0  0  0  0  0  0  0  0  0
   17.5954    2.7681   25.5177 C   0  0  1  0  0  0  0  0  0  0  0  0
   16.3541    2.5104   26.1423 O   0  0  0  0  0  0  0  0  0  0  0  0
   17.6328    4.1581   24.9396 C   0  0  0  0  0  0  0  0  0  0  0  0
   18.0402    4.9683   26.1624 C   0  0  2  0  0  0  0  0  0  0  0  0
   18.6752    6.2571   25.8300 N   0  0  0  0  0  0  0  0  0  0  0  0
   17.9702    7.2225   25.1508 C   0  0  0  0  0  0  0  0  0  0  0  0
   16.8159    6.9866   24.7048 O   0  0  0  0  0  0  0  0  0  0  0  0
   18.4965    8.4596   24.9836 N   0  0  0  0  0  0  0  0  0  0  0  0
   19.7065    8.7808   25.5005 C   0  0  0  0  0  0  0  0  0  0  0  0
   20.1941   10.1065   25.3692 N   0  0  0  0  0  0  0  0  0  0  0  0
   20.4495    7.8257   26.1862 C   0  0  0  0  0  0  0  0  0  0  0  0
   19.9119    6.5615   26.3408 C   0  0  0  0  0  0  0  0  0  0  0  0
   19.5416    0.1406   23.5822 H   0  0  0  0  0  0  0  0  0  0  0  0
   19.1496   -1.3907   26.6714 H   0  0  0  0  0  0  0  0  0  0  0  0
   20.8840    2.5974   26.6102 H   0  0  0  0  0  0  0  0  0  0  0  0
   20.1924    2.6184   24.9457 H   0  0  0  0  0  0  0  0  0  0  0  0
   18.4434    2.2372   27.4518 H   0  0  0  0  0  0  0  0  0  0  0  0
   17.7644    2.0040   24.7275 H   0  0  0  0  0  0  0  0  0  0  0  0
   16.2523    3.0960   26.9368 H   0  0  0  0  0  0  0  0  0  0  0  0
   18.4086    4.2295   24.1452 H   0  0  0  0  0  0  0  0  0  0  0  0
   16.6409    4.4567   24.5377 H   0  0  0  0  0  0  0  0  0  0  0  0
   17.1370    5.1871   26.7760 H   0  0  0  0  0  0  0  0  0  0  0  0
   21.1108   10.3870   25.7842 H   0  0  0  0  0  0  0  0  0  0  0  0
   19.6384   10.8226   24.8508 H   0  0  0  0  0  0  0  0  0  0  0  0
   21.4183    8.0652   26.6067 H   0  0  0  0  0  0  0  0  0  0  0  0
   20.5000    5.8408   26.8934 H   0  0  0  0  0  0  0  0  0  0  0  0
  2  1  2  0
  3  1  1  0
  4  1  1  0
  6  5  1  0
  6  1  1  0
  7  5  1  0
  8  7  1  0
  9  7  1  0
  9 10  1  0
 11  9  1  0
 12 11  1  0
 12  8  1  0
 12 13  1  0
 14 13  1  0
 15 14  2  0
 16 14  1  0
 17 16  2  0
 18 17  1  0
 19 17  1  0
 20 19  2  0
 20 13  1  0
  3 21  1  0
  4 22  1  0
  5 23  1  0
  5 24  1  0
  7 25  1  1
  9 26  1  6
 10 27  1  0
 11 28  1  0
 11 29  1  0
 12 30  1  1
 18 31  1  0
 18 32  1  0
 19 33  1  0
 20 34  1  0
M  END
