
     RDKit          3D

 34 35  0  0  0  0  0  0  0  0999 V2000
   31.3329    4.5877   -0.7728 P   0  0  0  0  0  0  0  0  0  0  0  0
   29.8841    4.5542   -0.3443 O   0  0  0  0  0  0  0  0  0  0  0  0
   32.3677    4.3262    0.5198 O   0  0  0  0  0  0  0  0  0  0  0  0
   31.7016    6.0312   -1.5384 O   0  0  0  0  0  0  0  0  0  0  0  0
   31.0393    2.1815   -1.5914 C   0  0  0  0  0  0  0  0  0  0  0  0
   31.6147    3.4152   -1.9387 O   0  0  0  0  0  0  0  0  0  0  0  0
   30.5710    1.5460   -2.9068 C   0  0  1  0  0  0  0  0  0  0  0  0
   31.3084    0.3804   -3.1838 O   0  0  0  0  0  0  0  0  0  0  0  0
   29.0902    1.1789   -2.8678 C   0  0  1  0  0  0  0  0  0  0  0  0
   28.4953    1.3702   -4.1349 O   0  0  0  0  0  0  0  0  0  0  0  0
   29.1379   -0.2824   -2.5040 C   0  0  0  0  0  0  0  0  0  0  0  0
   30.4149   -0.7145   -3.2114 C   0  0  2  0  0  0  0  0  0  0  0  0
   31.0407   -1.9168   -2.6302 N   0  0  0  0  0  0  0  0  0  0  0  0
   30.3302   -3.0889   -2.5219 C   0  0  0  0  0  0  0  0  0  0  0  0
   29.0950   -3.1220   -2.7665 O   0  0  0  0  0  0  0  0  0  0  0  0
   30.9604   -4.2379   -2.1763 N   0  0  0  0  0  0  0  0  0  0  0  0
   32.2961   -4.2631   -1.9525 C   0  0  0  0  0  0  0  0  0  0  0  0
   32.9317   -5.4931   -1.6424 N   0  0  0  0  0  0  0  0  0  0  0  0
   33.0425   -3.0942   -2.0452 C   0  0  0  0  0  0  0  0  0  0  0  0
   32.3905   -1.9233   -2.3804 C   0  0  0  0  0  0  0  0  0  0  0  0
   32.5044    3.3455    0.5389 H   0  0  0  0  0  0  0  0  0  0  0  0
   31.6122    6.7205   -0.8329 H   0  0  0  0  0  0  0  0  0  0  0  0
   31.8252    1.5439   -1.1318 H   0  0  0  0  0  0  0  0  0  0  0  0
   30.1843    2.2499   -0.8780 H   0  0  0  0  0  0  0  0  0  0  0  0
   30.7617    2.2693   -3.7324 H   0  0  0  0  0  0  0  0  0  0  0  0
   28.5187    1.7600   -2.1109 H   0  0  0  0  0  0  0  0  0  0  0  0
   29.0636    0.9596   -4.8370 H   0  0  0  0  0  0  0  0  0  0  0  0
   29.2380   -0.4070   -1.4028 H   0  0  0  0  0  0  0  0  0  0  0  0
   28.2392   -0.8210   -2.8737 H   0  0  0  0  0  0  0  0  0  0  0  0
   30.1851   -0.9386   -4.2777 H   0  0  0  0  0  0  0  0  0  0  0  0
   32.7310   -5.9929   -0.7474 H   0  0  0  0  0  0  0  0  0  0  0  0
   33.6125   -5.9167   -2.3114 H   0  0  0  0  0  0  0  0  0  0  0  0
   34.1111   -3.0961   -1.8688 H   0  0  0  0  0  0  0  0  0  0  0  0
   32.9977   -1.0316   -2.4626 H   0  0  0  0  0  0  0  0  0  0  0  0
  2  1  2  0
  3  1  1  0
  4  1  1  0
  6  5  1  0
  6  1  1  0
  7  5  1  0
  8  7  1  0
  9  7  1  0
  9 10  1  0
 11  9  1  0
 12 11  1  0
 12  8  1  0
 12 13  1  0
 14 13  1  0
 15 14  2  0
 16 14  1  0
 17 16  2  0
 18 17  1  0
 19 17  1  0
 20 19  2  0
 20 13  1  0
  3 21  1  0
  4 22  1  0
  5 23  1  0
  5 24  1  0
  7 25  1  6
  9 26  1  1
 10 27  1  0
 11 28  1  0
 11 29  1  0
 12 30  1  6
 18 31  1  0
 18 32  1  0
 19 33  1  0
 20 34  1  0
M  END
