
     RDKit          3D

 39 39  0  0  0  0  0  0  0  0999 V2000
   80.6602   17.0755   10.2726 N   0  0  0  0  0  0  0  0  0  0  0  0
   79.2124   17.4643   10.2318 C   0  0  2  0  0  0  0  0  0  0  0  0
   78.5165   16.9341   11.4821 C   0  0  0  0  0  0  0  0  0  0  0  0
   77.3827   17.3842   11.8282 O   0  0  0  0  0  0  0  0  0  0  0  0
   78.4460   16.9932    8.9682 C   0  0  0  0  0  0  0  0  0  0  0  0
   77.0814   16.7827    9.2375 O   0  0  0  0  0  0  0  0  0  0  0  0
   79.6270   13.4507   13.5769 P   0  0  0  0  0  0  0  0  0  0  0  0
   79.6732   12.9945   15.0113 O   0  0  0  0  0  0  0  0  0  0  0  0
   78.0660   13.8595   13.1402 O   0  0  0  0  0  0  0  0  0  0  0  0
   80.1233   12.2021   12.5788 O   0  0  0  0  0  0  0  0  0  0  0  0
   80.5338   14.8599   13.3824 O   0  0  0  0  0  0  0  0  0  0  0  0
   79.1086   15.9381   12.2477 O   0  0  0  0  0  0  0  0  0  0  0  0
   84.9259   14.2221   11.6159 N   0  0  0  0  0  0  0  0  0  0  0  0
   84.6616   14.8966   10.4647 C   0  0  0  0  0  0  0  0  0  0  0  0
   85.7233   14.9168    9.4047 C   0  0  0  0  0  0  0  0  0  0  0  0
   83.4236   15.5946   10.3177 C   0  0  0  0  0  0  0  0  0  0  0  0
   83.1917   16.3168    9.1446 O   0  0  0  0  0  0  0  0  0  0  0  0
   82.4598   15.5533   11.3861 C   0  0  0  0  0  0  0  0  0  0  0  0
   81.0223   16.1502   11.3506 C   0  0  0  0  0  0  0  0  0  0  0  0
   82.8006   14.8050   12.5623 C   0  0  0  0  0  0  0  0  0  0  0  0
   81.8779   14.6931   13.7705 C   0  0  0  0  0  0  0  0  0  0  0  0
   84.0445   14.1617   12.6424 C   0  0  0  0  0  0  0  0  0  0  0  0
   80.7954   16.4963    9.4115 H   0  0  0  0  0  0  0  0  0  0  0  0
   79.1374   18.5747   10.2728 H   0  0  0  0  0  0  0  0  0  0  0  0
   78.5705   17.7564    8.1636 H   0  0  0  0  0  0  0  0  0  0  0  0
   78.8784   16.0572    8.5660 H   0  0  0  0  0  0  0  0  0  0  0  0
   76.5945   17.6021    8.9600 H   0  0  0  0  0  0  0  0  0  0  0  0
   77.8189   14.6029   13.7464 H   0  0  0  0  0  0  0  0  0  0  0  0
   81.0289   11.9608   12.8983 H   0  0  0  0  0  0  0  0  0  0  0  0
   78.6517   15.5779   13.0769 H   0  0  0  0  0  0  0  0  0  0  0  0
   85.4139   15.5953    8.5825 H   0  0  0  0  0  0  0  0  0  0  0  0
   86.6897   15.2737    9.8204 H   0  0  0  0  0  0  0  0  0  0  0  0
   85.8700   13.8937    8.9994 H   0  0  0  0  0  0  0  0  0  0  0  0
   82.8265   17.2595    9.1583 H   0  0  0  0  0  0  0  0  0  0  0  0
   80.3156   15.2933   11.3103 H   0  0  0  0  0  0  0  0  0  0  0  0
   80.8643   16.6829   12.3071 H   0  0  0  0  0  0  0  0  0  0  0  0
   82.1374   15.5013   14.4849 H   0  0  0  0  0  0  0  0  0  0  0  0
   82.0719   13.7547   14.3407 H   0  0  0  0  0  0  0  0  0  0  0  0
   84.3212   13.6024   13.5270 H   0  0  0  0  0  0  0  0  0  0  0  0
  2  1  1  0
  3  2  1  0
  4  3  2  0
  2  5  1  0
  6  5  1  0
  8  7  2  0
  9  7  1  0
 10  7  1  0
 11  7  1  0
 12  3  1  0
 14 13  2  0
 15 14  1  0
 16 14  1  0
 17 16  1  0
 18 16  2  0
 19  1  1  0
 19 18  1  0
 20 18  1  0
 21 11  1  0
 21 20  1  0
 22 20  2  0
 22 13  1  0
  1 23  1  0
  2 24  1  1
  5 25  1  0
  5 26  1  0
  6 27  1  0
  9 28  1  0
 10 29  1  0
 12 30  1  0
 15 31  1  0
 15 32  1  0
 15 33  1  0
 17 34  1  0
 19 35  1  0
 19 36  1  0
 21 37  1  0
 21 38  1  0
 22 39  1  0
M  END
