
     RDKit          3D

 42 42  0  0  0  0  0  0  0  0999 V2000
 -127.1082   31.2005  123.4484 P   0  0  0  0  0  0  0  0  0  0  0  0
 -131.5610   27.7553  128.6716 P   0  0  0  0  0  0  0  0  0  0  0  0
 -127.5065   31.9766  128.0101 C   0  0  0  0  0  0  0  0  0  0  0  0
 -128.0692   31.0793  124.8517 O   0  0  0  0  0  0  0  0  0  0  0  0
 -127.1844   32.3074  126.7306 C   0  0  0  0  0  0  0  0  0  0  0  0
 -130.5560   32.2898  125.0638 O   0  0  0  0  0  0  0  0  0  0  0  0
 -128.1820   32.2949  125.5829 C   0  0  2  0  0  0  0  0  0  0  0  0
 -131.2910   31.4524  127.5956 O   0  0  0  0  0  0  0  0  0  0  0  0
 -129.6320   32.3994  126.1206 C   0  0  2  0  0  0  0  0  0  0  0  0
 -125.2110   31.4201  128.7769 O   0  0  0  0  0  0  0  0  0  0  0  0
 -129.9013   31.3507  127.2206 C   0  0  1  0  0  0  0  0  0  0  0  0
 -126.6558   32.4765  130.1933 O   0  0  0  0  0  0  0  0  0  0  0  0
 -128.9483   31.6554  128.4187 C   0  0  0  0  0  0  0  0  0  0  0  0
 -125.6409   31.2527  123.8111 O   0  0  0  0  0  0  0  0  0  0  0  0
 -126.4452   31.9817  129.0531 C   0  0  0  0  0  0  0  0  0  0  0  0
 -127.5589   32.5444  122.5331 O   0  0  0  0  0  0  0  0  0  0  0  0
 -132.0212   30.2260  127.6402 C   0  0  2  0  0  0  0  0  0  0  0  0
 -127.3738   29.7941  122.5617 O   0  0  0  0  0  0  0  0  0  0  0  0
 -132.3217   29.6994  126.1955 C   0  0  0  0  0  0  0  0  0  0  0  0
 -134.0532   31.5009  127.8212 O   0  0  0  0  0  0  0  0  0  0  0  0
 -133.3406   30.5912  128.3147 C   0  0  0  0  0  0  0  0  0  0  0  0
 -133.8492   29.8368  129.3710 O   0  0  0  0  0  0  0  0  0  0  0  0
 -131.6279   26.9706  127.3859 O   0  0  0  0  0  0  0  0  0  0  0  0
 -132.9830   27.6032  129.5397 O   0  0  0  0  0  0  0  0  0  0  0  0
 -130.2943   27.1442  129.6001 O   0  0  0  0  0  0  0  0  0  0  0  0
 -131.1935   29.3903  128.4407 O   0  0  0  0  0  0  0  0  0  0  0  0
 -131.1965   29.1895  125.6010 F   0  0  0  0  0  0  0  0  0  0  0  0
 -133.2900   28.7142  126.1893 F   0  0  0  0  0  0  0  0  0  0  0  0
 -126.1568   32.5387  126.4775 H   0  0  0  0  0  0  0  0  0  0  0  0
 -130.4649   31.3892  124.6612 H   0  0  0  0  0  0  0  0  0  0  0  0
 -128.0010   33.1934  124.9525 H   0  0  0  0  0  0  0  0  0  0  0  0
 -129.7635   33.4119  126.5648 H   0  0  0  0  0  0  0  0  0  0  0  0
 -124.4762   31.4081  129.4742 H   0  0  0  0  0  0  0  0  0  0  0  0
 -129.6243   30.3494  126.8290 H   0  0  0  0  0  0  0  0  0  0  0  0
 -129.3480   32.5256  128.9829 H   0  0  0  0  0  0  0  0  0  0  0  0
 -128.9477   30.7824  129.1060 H   0  0  0  0  0  0  0  0  0  0  0  0
 -126.8886   33.2418  122.7461 H   0  0  0  0  0  0  0  0  0  0  0  0
 -126.8849   29.9348  121.7119 H   0  0  0  0  0  0  0  0  0  0  0  0
 -132.6910   30.5392  125.5695 H   0  0  0  0  0  0  0  0  0  0  0  0
 -134.7508   30.0534  129.7790 H   0  0  0  0  0  0  0  0  0  0  0  0
 -133.3220   26.7003  129.3142 H   0  0  0  0  0  0  0  0  0  0  0  0
 -130.3608   26.1608  129.5017 H   0  0  0  0  0  0  0  0  0  0  0  0
  4  1  1  0
  5  3  2  0
  7  4  1  0
  7  5  1  0
  9  6  1  0
  9  7  1  0
 11  8  1  0
 11  9  1  0
 13 11  1  0
 13  3  1  0
 14  1  2  0
 15 12  2  0
 15 10  1  0
 15  3  1  0
 16  1  1  0
 17  8  1  6
 18  1  1  0
 19 17  1  0
 21 20  2  0
 21 17  1  0
 22 21  1  0
 23  2  2  0
 24  2  1  0
 25  2  1  0
 26 17  1  0
 26  2  1  0
 19 27  1  0
 28 19  1  0
  5 29  1  0
  6 30  1  0
  7 31  1  6
  9 32  1  1
 10 33  1  0
 11 34  1  6
 13 35  1  0
 13 36  1  0
 16 37  1  0
 18 38  1  0
 19 39  1  0
 22 40  1  0
 24 41  1  0
 25 42  1  0
M  END
