
     RDKit          3D

 89 91  0  0  0  0  0  0  0  0999 V2000
  -21.6181   27.6527   46.3977 C   0  0  2  0  0  0  0  0  0  0  0  0
  -21.7189   37.2977   51.8324 C   0  0  0  0  0  0  0  0  0  0  0  0
  -22.3875   36.2778   51.9949 O   0  0  0  0  0  0  0  0  0  0  0  0
  -22.8965   28.0717   45.9786 O   0  0  0  0  0  0  0  0  0  0  0  0
  -21.7766   26.5972   47.5357 C   0  0  0  0  0  0  0  0  0  0  0  0
  -22.1988   27.2523   48.8668 C   0  0  0  0  0  0  0  0  0  0  0  0
  -20.4555   25.8171   47.7527 C   0  0  0  0  0  0  0  0  0  0  0  0
  -21.6870   38.3670   52.8843 C   0  0  0  0  0  0  0  0  0  0  0  0
  -25.6066   23.3768   43.9662 P   0  0  2  0  0  0  0  0  0  0  0  0
  -23.4048   24.9858   44.6305 P   0  0  2  0  0  0  0  0  0  0  0  0
  -23.1148   17.9926   40.4541 P   0  0  0  0  0  0  0  0  0  0  0  0
  -20.7621   37.5832   50.3273 S   0  0  0  0  0  0  0  0  0  0  0  0
  -21.0913   36.0125   49.4871 C   0  0  0  0  0  0  0  0  0  0  0  0
  -20.1016   34.9561   49.9595 C   0  0  0  0  0  0  0  0  0  0  0  0
  -20.6334   33.6541   49.6064 N   0  0  0  0  0  0  0  0  0  0  0  0
  -19.8489   32.5854   49.1012 C   0  0  0  0  0  0  0  0  0  0  0  0
  -18.6120   32.7146   48.9101 O   0  0  0  0  0  0  0  0  0  0  0  0
  -20.5285   31.3296   48.7105 C   0  0  0  0  0  0  0  0  0  0  0  0
  -20.6988   31.3344   47.2033 C   0  0  0  0  0  0  0  0  0  0  0  0
  -21.4035   30.1375   46.8067 N   0  0  0  0  0  0  0  0  0  0  0  0
  -20.8018   28.8416   46.8050 C   0  0  0  0  0  0  0  0  0  0  0  0
  -19.5928   28.6973   47.1298 O   0  0  0  0  0  0  0  0  0  0  0  0
  -24.0781   18.8769   44.7140 C   0  0  1  0  0  0  0  0  0  0  0  0
  -23.8581   17.2557   49.5646 N   0  0  0  0  0  0  0  0  0  0  0  0
  -25.6908   24.2616   42.7407 O   0  0  0  0  0  0  0  0  0  0  0  0
  -23.1801   16.7965   48.4671 C   0  0  0  0  0  0  0  0  0  0  0  0
  -25.1660   18.7426   43.6457 C   0  0  2  0  0  0  0  0  0  0  0  0
  -27.0539   23.4074   44.8152 O   0  0  0  0  0  0  0  0  0  0  0  0
  -25.7339   17.4494   43.5672 O   0  0  0  0  0  0  0  0  0  0  0  0
  -24.3757   19.1422   42.4134 C   0  0  2  0  0  0  0  0  0  0  0  0
  -23.3861   17.3646   47.2433 N   0  0  0  0  0  0  0  0  0  0  0  0
  -24.4534   23.7771   45.1193 O   0  0  0  0  0  0  0  0  0  0  0  0
  -23.5597   18.0387   42.0814 O   0  0  0  0  0  0  0  0  0  0  0  0
  -24.2728   18.3878   47.1535 C   0  0  0  0  0  0  0  0  0  0  0  0
  -23.4752   20.2478   42.9921 C   0  0  2  0  0  0  0  0  0  0  0  0
  -24.1094   26.3100   44.4421 O   0  0  0  0  0  0  0  0  0  0  0  0
  -23.2359   19.9545   44.3578 O   0  0  0  0  0  0  0  0  0  0  0  0
  -24.9500   18.8638   48.2191 C   0  0  0  0  0  0  0  0  0  0  0  0
  -24.0548   21.6720   42.8610 C   0  0  0  0  0  0  0  0  0  0  0  0
  -22.4693   24.5869   43.2949 O   0  0  0  0  0  0  0  0  0  0  0  0
  -25.2871   21.7693   43.5421 O   0  0  0  0  0  0  0  0  0  0  0  0
  -24.7490   18.2878   49.4705 C   0  0  0  0  0  0  0  0  0  0  0  0
  -25.4404   18.7458   50.6254 N   0  0  0  0  0  0  0  0  0  0  0  0
  -22.3221   24.9825   45.9186 O   0  0  0  0  0  0  0  0  0  0  0  0
  -25.7528   19.8839   47.8482 N   0  0  0  0  0  0  0  0  0  0  0  0
  -22.4703   19.2870   40.0139 O   0  0  0  0  0  0  0  0  0  0  0  0
  -25.5175   19.9879   46.5098 C   0  0  0  0  0  0  0  0  0  0  0  0
  -22.0054   16.7388   40.3326 O   0  0  0  0  0  0  0  0  0  0  0  0
  -24.6206   19.0712   46.0581 N   0  0  0  0  0  0  0  0  0  0  0  0
  -24.4640   17.6288   39.5256 O   0  0  0  0  0  0  0  0  0  0  0  0
  -22.8445   25.5860   47.0786 C   0  0  0  0  0  0  0  0  0  0  0  0
  -21.0943   27.1789   45.5335 H   0  0  0  0  0  0  0  0  0  0  0  0
  -23.5200   27.8971   46.7329 H   0  0  0  0  0  0  0  0  0  0  0  0
  -22.3935   26.4753   49.6371 H   0  0  0  0  0  0  0  0  0  0  0  0
  -21.4063   27.9256   49.2574 H   0  0  0  0  0  0  0  0  0  0  0  0
  -23.1278   27.8460   48.7295 H   0  0  0  0  0  0  0  0  0  0  0  0
  -19.6893   26.4561   48.2378 H   0  0  0  0  0  0  0  0  0  0  0  0
  -20.6196   24.9451   48.4225 H   0  0  0  0  0  0  0  0  0  0  0  0
  -20.0291   25.4473   46.7956 H   0  0  0  0  0  0  0  0  0  0  0  0
  -20.6899   38.3796   53.3715 H   0  0  0  0  0  0  0  0  0  0  0  0
  -22.4626   38.1780   53.6567 H   0  0  0  0  0  0  0  0  0  0  0  0
  -21.8783   39.3548   52.4159 H   0  0  0  0  0  0  0  0  0  0  0  0
  -22.1474   35.7042   49.6384 H   0  0  0  0  0  0  0  0  0  0  0  0
  -20.9543   36.1671   48.3957 H   0  0  0  0  0  0  0  0  0  0  0  0
  -19.1131   35.1328   49.4825 H   0  0  0  0  0  0  0  0  0  0  0  0
  -19.9800   34.9991   51.0631 H   0  0  0  0  0  0  0  0  0  0  0  0
  -21.6232   33.4475   49.8742 H   0  0  0  0  0  0  0  0  0  0  0  0
  -21.5196   31.2408   49.2068 H   0  0  0  0  0  0  0  0  0  0  0  0
  -19.9058   30.4672   49.0310 H   0  0  0  0  0  0  0  0  0  0  0  0
  -21.2901   32.2267   46.8967 H   0  0  0  0  0  0  0  0  0  0  0  0
  -19.7129   31.3768   46.6890 H   0  0  0  0  0  0  0  0  0  0  0  0
  -22.3960   30.2737   46.5141 H   0  0  0  0  0  0  0  0  0  0  0  0
  -23.4474   17.9586   44.7089 H   0  0  0  0  0  0  0  0  0  0  0  0
  -22.4801   15.9790   48.5700 H   0  0  0  0  0  0  0  0  0  0  0  0
  -25.9902   19.4643   43.8169 H   0  0  0  0  0  0  0  0  0  0  0  0
  -27.7121   22.9854   44.2072 H   0  0  0  0  0  0  0  0  0  0  0  0
  -26.0624   17.1845   44.4648 H   0  0  0  0  0  0  0  0  0  0  0  0
  -25.0426   19.4771   41.5850 H   0  0  0  0  0  0  0  0  0  0  0  0
  -22.4976   20.2445   42.4631 H   0  0  0  0  0  0  0  0  0  0  0  0
  -23.2835   22.3484   43.2803 H   0  0  0  0  0  0  0  0  0  0  0  0
  -24.2020   21.9165   41.7865 H   0  0  0  0  0  0  0  0  0  0  0  0
  -22.6209   23.6189   43.1531 H   0  0  0  0  0  0  0  0  0  0  0  0
  -26.1235   19.5335   50.5659 H   0  0  0  0  0  0  0  0  0  0  0  0
  -25.2706   18.2957   51.5521 H   0  0  0  0  0  0  0  0  0  0  0  0
  -25.9953   20.7273   45.8831 H   0  0  0  0  0  0  0  0  0  0  0  0
  -22.5056   15.9310   40.6125 H   0  0  0  0  0  0  0  0  0  0  0  0
  -24.1158   17.5256   38.6041 H   0  0  0  0  0  0  0  0  0  0  0  0
  -23.8429   26.0669   46.9585 H   0  0  0  0  0  0  0  0  0  0  0  0
  -22.9769   24.7971   47.8510 H   0  0  0  0  0  0  0  0  0  0  0  0
  3  2  2  0
  1  4  1  0
  5  1  1  0
  5  6  1  0
  7  5  1  0
  8  2  1  0
 12  2  1  0
 13 12  1  0
 14 13  1  0
 15 14  1  0
 16 15  1  0
 17 16  2  0
 18 16  1  0
 19 18  1  0
 20 19  1  0
 21  1  1  0
 21 20  1  0
 22 21  2  0
 25  9  2  0
 26 24  2  0
 27 23  1  0
  9 28  1  1
 27 29  1  0
 30 27  1  0
 31 26  1  0
 10 32  1  1
 32  9  1  0
 30 33  1  0
 33 11  1  0
 34 31  2  0
 35 30  1  0
 36 10  2  0
 37 35  1  0
 37 23  1  0
 38 34  1  0
 35 39  1  0
 40 10  1  0
 41 39  1  0
 41  9  1  0
 42 38  2  0
 42 24  1  0
 43 42  1  0
 44 10  1  0
 45 38  1  0
 46 11  2  0
 47 45  2  0
 48 11  1  0
 49 47  1  0
 49 34  1  0
 23 49  1  0
 50 11  1  0
 51 44  1  0
 51  5  1  0
  1 52  1  6
  4 53  1  0
  6 54  1  0
  6 55  1  0
  6 56  1  0
  7 57  1  0
  7 58  1  0
  7 59  1  0
  8 60  1  0
  8 61  1  0
  8 62  1  0
 13 63  1  0
 13 64  1  0
 14 65  1  0
 14 66  1  0
 15 67  1  0
 18 68  1  0
 18 69  1  0
 19 70  1  0
 19 71  1  0
 20 72  1  0
 23 73  1  1
 26 74  1  0
 27 75  1  1
 28 76  1  0
 29 77  1  0
 30 78  1  6
 35 79  1  6
 39 80  1  0
 39 81  1  0
 40 82  1  0
 43 83  1  0
 43 84  1  0
 47 85  1  0
 48 86  1  0
 50 87  1  0
 51 88  1  0
 51 89  1  0
M  END
