
     RDKit          3D

 89 91  0  0  0  0  0  0  0  0999 V2000
  -22.0573   28.6505   46.8650 C   0  0  2  0  0  0  0  0  0  0  0  0
  -22.3739   38.1387   52.6562 C   0  0  0  0  0  0  0  0  0  0  0  0
  -23.0185   37.1007   52.8000 O   0  0  0  0  0  0  0  0  0  0  0  0
  -23.3981   29.0184   46.6357 O   0  0  0  0  0  0  0  0  0  0  0  0
  -22.0191   27.4961   47.9138 C   0  0  0  0  0  0  0  0  0  0  0  0
  -22.3131   28.0093   49.3384 C   0  0  0  0  0  0  0  0  0  0  0  0
  -20.6406   26.7886   47.9057 C   0  0  0  0  0  0  0  0  0  0  0  0
  -22.3589   39.1847   53.7317 C   0  0  0  0  0  0  0  0  0  0  0  0
  -26.0685   24.3400   44.5341 P   0  0  2  0  0  0  0  0  0  0  0  0
  -23.8946   26.0287   45.0824 P   0  0  2  0  0  0  0  0  0  0  0  0
  -22.4540   19.6545   41.8703 P   0  0  0  0  0  0  0  0  0  0  0  0
  -21.4339   38.4793   51.1521 S   0  0  0  0  0  0  0  0  0  0  0  0
  -21.7334   36.9206   50.2789 C   0  0  0  0  0  0  0  0  0  0  0  0
  -20.7173   35.8765   50.7213 C   0  0  0  0  0  0  0  0  0  0  0  0
  -21.2221   34.5711   50.3422 N   0  0  0  0  0  0  0  0  0  0  0  0
  -20.4173   33.5319   49.8084 C   0  0  0  0  0  0  0  0  0  0  0  0
  -19.1850   33.6931   49.6126 O   0  0  0  0  0  0  0  0  0  0  0  0
  -21.0713   32.2701   49.3937 C   0  0  0  0  0  0  0  0  0  0  0  0
  -21.2517   32.3047   47.8881 C   0  0  0  0  0  0  0  0  0  0  0  0
  -21.9321   31.1014   47.4691 N   0  0  0  0  0  0  0  0  0  0  0  0
  -21.2646   29.8523   47.2811 C   0  0  0  0  0  0  0  0  0  0  0  0
  -20.0191   29.7608   47.4499 O   0  0  0  0  0  0  0  0  0  0  0  0
  -24.3158   19.8691   44.8248 C   0  0  1  0  0  0  0  0  0  0  0  0
  -23.5038   17.9739   49.5103 N   0  0  0  0  0  0  0  0  0  0  0  0
  -26.3180   25.2916   43.3834 O   0  0  0  0  0  0  0  0  0  0  0  0
  -22.9369   17.6082   48.3186 C   0  0  0  0  0  0  0  0  0  0  0  0
  -25.5105   19.7545   43.8748 C   0  0  2  0  0  0  0  0  0  0  0  0
  -27.4127   24.2617   45.5357 O   0  0  0  0  0  0  0  0  0  0  0  0
  -26.0397   18.4463   43.7769 O   0  0  0  0  0  0  0  0  0  0  0  0
  -24.8759   20.2579   42.5916 C   0  0  2  0  0  0  0  0  0  0  0  0
  -23.2966   18.2390   47.1629 N   0  0  0  0  0  0  0  0  0  0  0  0
  -24.8085   24.7176   45.5778 O   0  0  0  0  0  0  0  0  0  0  0  0
  -24.0652   19.2099   42.1036 O   0  0  0  0  0  0  0  0  0  0  0  0
  -24.2217   19.2290   47.2351 C   0  0  0  0  0  0  0  0  0  0  0  0
  -23.9544   21.3628   43.1377 C   0  0  2  0  0  0  0  0  0  0  0  0
  -24.6886   27.3150   45.0967 O   0  0  0  0  0  0  0  0  0  0  0  0
  -23.5551   20.9991   44.4479 O   0  0  0  0  0  0  0  0  0  0  0  0
  -24.7920   19.6133   48.3960 C   0  0  0  0  0  0  0  0  0  0  0  0
  -24.5926   22.7677   43.1609 C   0  0  0  0  0  0  0  0  0  0  0  0
  -23.1065   25.8041   43.6173 O   0  0  0  0  0  0  0  0  0  0  0  0
  -25.7441   22.7746   43.9768 O   0  0  0  0  0  0  0  0  0  0  0  0
  -24.4339   18.9728   49.5792 C   0  0  0  0  0  0  0  0  0  0  0  0
  -25.0077   19.3334   50.8291 N   0  0  0  0  0  0  0  0  0  0  0  0
  -22.6659   25.9891   46.2314 O   0  0  0  0  0  0  0  0  0  0  0  0
  -25.6648   20.6203   48.1800 N   0  0  0  0  0  0  0  0  0  0  0  0
  -21.8542   20.2584   43.1192 O   0  0  0  0  0  0  0  0  0  0  0  0
  -25.5833   20.8128   46.8332 C   0  0  0  0  0  0  0  0  0  0  0  0
  -21.6513   18.2304   41.4894 O   0  0  0  0  0  0  0  0  0  0  0  0
  -24.7119   19.9614   46.2295 N   0  0  0  0  0  0  0  0  0  0  0  0
  -22.3577   20.7084   40.5684 O   0  0  0  0  0  0  0  0  0  0  0  0
  -23.0770   26.4587   47.4936 C   0  0  0  0  0  0  0  0  0  0  0  0
  -21.6163   28.2854   45.9069 H   0  0  0  0  0  0  0  0  0  0  0  0
  -23.4264   29.4729   45.7521 H   0  0  0  0  0  0  0  0  0  0  0  0
  -21.5784   28.7911   49.6286 H   0  0  0  0  0  0  0  0  0  0  0  0
  -23.3280   28.4555   49.4079 H   0  0  0  0  0  0  0  0  0  0  0  0
  -22.2440   27.1779   50.0722 H   0  0  0  0  0  0  0  0  0  0  0  0
  -19.8578   27.4338   48.3549 H   0  0  0  0  0  0  0  0  0  0  0  0
  -20.6744   25.8552   48.5086 H   0  0  0  0  0  0  0  0  0  0  0  0
  -20.3130   26.5282   46.8764 H   0  0  0  0  0  0  0  0  0  0  0  0
  -21.3140   39.3672   54.0583 H   0  0  0  0  0  0  0  0  0  0  0  0
  -22.9568   38.8531   54.6072 H   0  0  0  0  0  0  0  0  0  0  0  0
  -22.7898   40.1287   53.3379 H   0  0  0  0  0  0  0  0  0  0  0  0
  -22.7814   36.5854   50.4297 H   0  0  0  0  0  0  0  0  0  0  0  0
  -21.6073   37.1027   49.1904 H   0  0  0  0  0  0  0  0  0  0  0  0
  -19.7361   36.0860   50.2422 H   0  0  0  0  0  0  0  0  0  0  0  0
  -20.5892   35.8976   51.8248 H   0  0  0  0  0  0  0  0  0  0  0  0
  -22.2053   34.3363   50.6115 H   0  0  0  0  0  0  0  0  0  0  0  0
  -22.0568   32.1480   49.8940 H   0  0  0  0  0  0  0  0  0  0  0  0
  -20.4273   31.4150   49.6909 H   0  0  0  0  0  0  0  0  0  0  0  0
  -21.8649   33.1902   47.6053 H   0  0  0  0  0  0  0  0  0  0  0  0
  -20.2705   32.3808   47.3688 H   0  0  0  0  0  0  0  0  0  0  0  0
  -22.9587   31.1963   47.3064 H   0  0  0  0  0  0  0  0  0  0  0  0
  -23.6591   18.9790   44.6929 H   0  0  0  0  0  0  0  0  0  0  0  0
  -22.2027   16.8150   48.2928 H   0  0  0  0  0  0  0  0  0  0  0  0
  -26.3344   20.4309   44.1800 H   0  0  0  0  0  0  0  0  0  0  0  0
  -28.0599   23.6943   45.0456 H   0  0  0  0  0  0  0  0  0  0  0  0
  -25.2923   17.7998   43.6918 H   0  0  0  0  0  0  0  0  0  0  0  0
  -25.6416   20.6141   41.8636 H   0  0  0  0  0  0  0  0  0  0  0  0
  -23.0420   21.4303   42.5063 H   0  0  0  0  0  0  0  0  0  0  0  0
  -23.8026   23.4486   43.5357 H   0  0  0  0  0  0  0  0  0  0  0  0
  -24.8664   23.0692   42.1264 H   0  0  0  0  0  0  0  0  0  0  0  0
  -23.7618   26.0765   42.9269 H   0  0  0  0  0  0  0  0  0  0  0  0
  -24.4494   19.8424   51.5501 H   0  0  0  0  0  0  0  0  0  0  0  0
  -26.0010   19.0908   51.0404 H   0  0  0  0  0  0  0  0  0  0  0  0
  -26.1525   21.5681   46.3103 H   0  0  0  0  0  0  0  0  0  0  0  0
  -22.0820   17.9128   40.6559 H   0  0  0  0  0  0  0  0  0  0  0  0
  -21.3874   20.8515   40.4308 H   0  0  0  0  0  0  0  0  0  0  0  0
  -24.1076   26.8816   47.5333 H   0  0  0  0  0  0  0  0  0  0  0  0
  -23.0717   25.6014   48.2017 H   0  0  0  0  0  0  0  0  0  0  0  0
  3  2  2  0
  1  4  1  0
  5  1  1  0
  5  6  1  0
  7  5  1  0
  8  2  1  0
 12  2  1  0
 13 12  1  0
 14 13  1  0
 15 14  1  0
 16 15  1  0
 17 16  2  0
 18 16  1  0
 19 18  1  0
 20 19  1  0
 21  1  1  0
 21 20  1  0
 22 21  2  0
 25  9  2  0
 26 24  2  0
 27 23  1  0
  9 28  1  1
 27 29  1  0
 30 27  1  0
 31 26  1  0
 10 32  1  1
 32  9  1  0
 30 33  1  0
 33 11  1  0
 34 31  2  0
 35 30  1  0
 36 10  2  0
 37 35  1  0
 37 23  1  0
 38 34  1  0
 35 39  1  0
 40 10  1  0
 41 39  1  0
 41  9  1  0
 42 38  2  0
 42 24  1  0
 43 42  1  0
 44 10  1  0
 45 38  1  0
 46 11  2  0
 47 45  2  0
 48 11  1  0
 49 47  1  0
 49 34  1  0
 23 49  1  0
 50 11  1  0
 51 44  1  0
 51  5  1  0
  1 52  1  6
  4 53  1  0
  6 54  1  0
  6 55  1  0
  6 56  1  0
  7 57  1  0
  7 58  1  0
  7 59  1  0
  8 60  1  0
  8 61  1  0
  8 62  1  0
 13 63  1  0
 13 64  1  0
 14 65  1  0
 14 66  1  0
 15 67  1  0
 18 68  1  0
 18 69  1  0
 19 70  1  0
 19 71  1  0
 20 72  1  0
 23 73  1  1
 26 74  1  0
 27 75  1  1
 28 76  1  0
 29 77  1  0
 30 78  1  6
 35 79  1  6
 39 80  1  0
 39 81  1  0
 40 82  1  0
 43 83  1  0
 43 84  1  0
 47 85  1  0
 48 86  1  0
 50 87  1  0
 51 88  1  0
 51 89  1  0
M  END
