
     RDKit          3D

 89 91  0  0  0  0  0  0  0  0999 V2000
  -17.1229   -6.1112   -5.9969 C   0  0  2  0  0  0  0  0  0  0  0  0
  -17.1254  -15.5938  -11.9229 C   0  0  0  0  0  0  0  0  0  0  0  0
  -17.7732  -14.5725  -12.1423 O   0  0  0  0  0  0  0  0  0  0  0  0
  -18.4735   -6.4535   -5.8056 O   0  0  0  0  0  0  0  0  0  0  0  0
  -17.0105   -4.9982   -7.0882 C   0  0  0  0  0  0  0  0  0  0  0  0
  -17.3069   -5.5447   -8.5006 C   0  0  0  0  0  0  0  0  0  0  0  0
  -15.5967   -4.3646   -7.0740 C   0  0  0  0  0  0  0  0  0  0  0  0
  -16.8942  -16.5943  -13.0153 C   0  0  0  0  0  0  0  0  0  0  0  0
  -21.4475   -2.2359   -4.0116 P   0  0  2  0  0  0  0  0  0  0  0  0
  -19.1378   -3.7613   -4.4032 P   0  0  2  0  0  0  0  0  0  0  0  0
  -20.2016    2.4517    0.7096 P   0  0  0  0  0  0  0  0  0  0  0  0
  -16.4509  -15.9510  -10.2884 S   0  0  0  0  0  0  0  0  0  0  0  0
  -16.8495  -14.3636   -9.4964 C   0  0  0  0  0  0  0  0  0  0  0  0
  -15.7177  -13.3646   -9.7063 C   0  0  0  0  0  0  0  0  0  0  0  0
  -16.1789  -12.0478   -9.2968 N   0  0  0  0  0  0  0  0  0  0  0  0
  -15.3653  -11.1008   -8.6134 C   0  0  0  0  0  0  0  0  0  0  0  0
  -14.1881  -11.3806   -8.2687 O   0  0  0  0  0  0  0  0  0  0  0  0
  -15.9433   -9.7835   -8.2511 C   0  0  0  0  0  0  0  0  0  0  0  0
  -16.4291   -9.8268   -6.8140 C   0  0  0  0  0  0  0  0  0  0  0  0
  -17.0784   -8.5742   -6.5093 N   0  0  0  0  0  0  0  0  0  0  0  0
  -16.3605   -7.3513   -6.3132 C   0  0  0  0  0  0  0  0  0  0  0  0
  -15.1020   -7.3245   -6.3615 O   0  0  0  0  0  0  0  0  0  0  0  0
  -19.8271    2.2276   -3.7660 C   0  0  1  0  0  0  0  0  0  0  0  0
  -18.8476    4.4837   -8.3087 N   0  0  0  0  0  0  0  0  0  0  0  0
  -21.8339   -3.3418   -3.0527 O   0  0  0  0  0  0  0  0  0  0  0  0
  -18.3456    4.8040   -7.0734 C   0  0  0  0  0  0  0  0  0  0  0  0
  -21.1704    2.2710   -3.0388 C   0  0  2  0  0  0  0  0  0  0  0  0
  -22.6509   -1.9636   -5.1482 O   0  0  0  0  0  0  0  0  0  0  0  0
  -21.7265    3.5700   -2.9774 O   0  0  0  0  0  0  0  0  0  0  0  0
  -20.8075    1.6830   -1.6929 C   0  0  2  0  0  0  0  0  0  0  0  0
  -18.7035    4.0789   -5.9699 N   0  0  0  0  0  0  0  0  0  0  0  0
  -20.0855   -2.4960   -4.9531 O   0  0  0  0  0  0  0  0  0  0  0  0
  -20.2578    2.7451   -0.9496 O   0  0  0  0  0  0  0  0  0  0  0  0
  -19.5582    3.0365   -6.1420 C   0  0  0  0  0  0  0  0  0  0  0  0
  -19.7053    0.6695   -2.0901 C   0  0  2  0  0  0  0  0  0  0  0  0
  -19.8237   -5.0883   -4.6159 O   0  0  0  0  0  0  0  0  0  0  0  0
  -19.1191    1.0899   -3.3132 O   0  0  0  0  0  0  0  0  0  0  0  0
  -20.0629    2.7039   -7.3517 C   0  0  0  0  0  0  0  0  0  0  0  0
  -20.2260   -0.7723   -2.2641 C   0  0  0  0  0  0  0  0  0  0  0  0
  -18.6051   -3.6111   -2.8160 O   0  0  0  0  0  0  0  0  0  0  0  0
  -21.2544   -0.7558   -3.2211 O   0  0  0  0  0  0  0  0  0  0  0  0
  -19.7109    3.4387   -8.4753 C   0  0  0  0  0  0  0  0  0  0  0  0
  -20.2309    3.1256   -9.7627 N   0  0  0  0  0  0  0  0  0  0  0  0
  -17.7755   -3.5686   -5.3749 O   0  0  0  0  0  0  0  0  0  0  0  0
  -20.8800    1.6389   -7.2488 N   0  0  0  0  0  0  0  0  0  0  0  0
  -19.1583    1.4058    1.0217 O   0  0  0  0  0  0  0  0  0  0  0  0
  -20.8334    1.3458   -5.9230 C   0  0  0  0  0  0  0  0  0  0  0  0
  -19.7567    3.9135    1.4040 O   0  0  0  0  0  0  0  0  0  0  0  0
  -20.0307    2.1866   -5.2159 N   0  0  0  0  0  0  0  0  0  0  0  0
  -21.7153    2.0039    1.2829 O   0  0  0  0  0  0  0  0  0  0  0  0
  -18.0259   -3.8975   -6.7244 C   0  0  0  0  0  0  0  0  0  0  0  0
  -16.7121   -5.7190   -5.0359 H   0  0  0  0  0  0  0  0  0  0  0  0
  -18.5448   -6.8683   -4.9046 H   0  0  0  0  0  0  0  0  0  0  0  0
  -18.0926   -4.9348   -8.9964 H   0  0  0  0  0  0  0  0  0  0  0  0
  -16.3987   -5.5185   -9.1399 H   0  0  0  0  0  0  0  0  0  0  0  0
  -17.6645   -6.5951   -8.4437 H   0  0  0  0  0  0  0  0  0  0  0  0
  -15.6361   -3.3110   -6.7281 H   0  0  0  0  0  0  0  0  0  0  0  0
  -14.9289   -4.9121   -6.3740 H   0  0  0  0  0  0  0  0  0  0  0  0
  -15.1294   -4.3754   -8.0820 H   0  0  0  0  0  0  0  0  0  0  0  0
  -15.8035  -16.7389  -13.1615 H   0  0  0  0  0  0  0  0  0  0  0  0
  -17.3575  -17.5631  -12.7355 H   0  0  0  0  0  0  0  0  0  0  0  0
  -17.3416  -16.2425  -13.9693 H   0  0  0  0  0  0  0  0  0  0  0  0
  -17.8280  -13.9676   -9.8388 H   0  0  0  0  0  0  0  0  0  0  0  0
  -16.9525  -14.5488   -8.4060 H   0  0  0  0  0  0  0  0  0  0  0  0
  -14.8310  -13.6813   -9.1151 H   0  0  0  0  0  0  0  0  0  0  0  0
  -15.4378  -13.3250  -10.7807 H   0  0  0  0  0  0  0  0  0  0  0  0
  -17.1089  -11.7267   -9.6514 H   0  0  0  0  0  0  0  0  0  0  0  0
  -16.7868   -9.5305   -8.9302 H   0  0  0  0  0  0  0  0  0  0  0  0
  -15.1640   -9.0011   -8.3736 H   0  0  0  0  0  0  0  0  0  0  0  0
  -17.1582  -10.6591   -6.6899 H   0  0  0  0  0  0  0  0  0  0  0  0
  -15.5827   -9.9957   -6.1123 H   0  0  0  0  0  0  0  0  0  0  0  0
  -18.1210   -8.6108   -6.4786 H   0  0  0  0  0  0  0  0  0  0  0  0
  -19.2181    3.1222   -3.5040 H   0  0  0  0  0  0  0  0  0  0  0  0
  -17.6652    5.6379   -6.9702 H   0  0  0  0  0  0  0  0  0  0  0  0
  -21.9198    1.6100   -3.5190 H   0  0  0  0  0  0  0  0  0  0  0  0
  -23.4391   -1.6802   -4.6196 H   0  0  0  0  0  0  0  0  0  0  0  0
  -21.0156    4.2193   -2.7382 H   0  0  0  0  0  0  0  0  0  0  0  0
  -21.6954    1.2214   -1.2025 H   0  0  0  0  0  0  0  0  0  0  0  0
  -18.9070    0.6435   -1.3213 H   0  0  0  0  0  0  0  0  0  0  0  0
  -19.3592   -1.3749   -2.5884 H   0  0  0  0  0  0  0  0  0  0  0  0
  -20.6145   -1.1596   -1.2975 H   0  0  0  0  0  0  0  0  0  0  0  0
  -19.3196   -4.0160   -2.2629 H   0  0  0  0  0  0  0  0  0  0  0  0
  -20.8929    2.3292   -9.8977 H   0  0  0  0  0  0  0  0  0  0  0  0
  -19.9527    3.6943  -10.5928 H   0  0  0  0  0  0  0  0  0  0  0  0
  -21.3891    0.5291   -5.4886 H   0  0  0  0  0  0  0  0  0  0  0  0
  -18.8191    3.7799    1.6941 H   0  0  0  0  0  0  0  0  0  0  0  0
  -21.6027    1.9335    2.2643 H   0  0  0  0  0  0  0  0  0  0  0  0
  -19.0674   -4.2281   -6.9473 H   0  0  0  0  0  0  0  0  0  0  0  0
  -17.8485   -2.9921   -7.3450 H   0  0  0  0  0  0  0  0  0  0  0  0
  3  2  2  0
  1  4  1  0
  5  1  1  0
  5  6  1  0
  7  5  1  0
  8  2  1  0
 12  2  1  0
 13 12  1  0
 14 13  1  0
 15 14  1  0
 16 15  1  0
 17 16  2  0
 18 16  1  0
 19 18  1  0
 20 19  1  0
 21 20  1  0
 21  1  1  0
 22 21  2  0
 25  9  2  0
 26 24  2  0
 27 23  1  0
  9 28  1  6
 27 29  1  0
 30 27  1  0
 31 26  1  0
 10 32  1  6
 32  9  1  0
 30 33  1  0
 33 11  1  0
 34 31  2  0
 35 30  1  0
 36 10  2  0
 37 35  1  0
 37 23  1  0
 38 34  1  0
 35 39  1  0
 40 10  1  0
 41 39  1  0
 41  9  1  0
 42 38  2  0
 42 24  1  0
 43 42  1  0
 44 10  1  0
 45 38  1  0
 46 11  2  0
 47 45  2  0
 48 11  1  0
 49 47  1  0
 49 34  1  0
 23 49  1  0
 50 11  1  0
 51  5  1  0
 51 44  1  0
  1 52  1  1
  4 53  1  0
  6 54  1  0
  6 55  1  0
  6 56  1  0
  7 57  1  0
  7 58  1  0
  7 59  1  0
  8 60  1  0
  8 61  1  0
  8 62  1  0
 13 63  1  0
 13 64  1  0
 14 65  1  0
 14 66  1  0
 15 67  1  0
 18 68  1  0
 18 69  1  0
 19 70  1  0
 19 71  1  0
 20 72  1  0
 23 73  1  6
 26 74  1  0
 27 75  1  6
 28 76  1  0
 29 77  1  0
 30 78  1  1
 35 79  1  1
 39 80  1  0
 39 81  1  0
 40 82  1  0
 43 83  1  0
 43 84  1  0
 47 85  1  0
 48 86  1  0
 50 87  1  0
 51 88  1  0
 51 89  1  0
M  END
