
     RDKit          3D

 41 43  0  0  0  0  0  0  0  0999 V2000
  -19.1074  -25.6263   -9.2126 P   0  0  2  0  0  0  0  0  0  0  0  0
  -21.2594  -27.0661   -8.0266 P   0  0  0  0  0  0  0  0  0  0  0  0
  -19.7176  -23.2277   -9.9110 C   0  0  0  0  0  0  0  0  0  0  0  0
  -18.6862  -23.9923   -9.3256 O   0  0  0  0  0  0  0  0  0  0  0  0
  -19.0603  -22.1422  -10.7847 C   0  0  1  0  0  0  0  0  0  0  0  0
  -18.0005  -21.5291  -10.0778 O   0  0  0  0  0  0  0  0  0  0  0  0
  -18.4929  -22.7369  -12.0788 C   0  0  1  0  0  0  0  0  0  0  0  0
  -18.5683  -21.7882  -13.1122 O   0  0  0  0  0  0  0  0  0  0  0  0
  -17.0441  -22.9756  -11.7270 C   0  0  0  0  0  0  0  0  0  0  0  0
  -16.7866  -21.8614  -10.7162 C   0  0  2  0  0  0  0  0  0  0  0  0
  -15.8114  -21.9770   -5.6653 N   0  0  0  0  0  0  0  0  0  0  0  0
  -18.0087  -26.3294   -8.4422 O   0  0  0  0  0  0  0  0  0  0  0  0
  -22.3421  -27.3889   -9.0306 O   0  0  0  0  0  0  0  0  0  0  0  0
  -16.8252  -21.3367   -6.3246 C   0  0  0  0  0  0  0  0  0  0  0  0
  -19.2554  -26.2962  -10.7504 O   0  0  0  0  0  0  0  0  0  0  0  0
  -20.1621  -28.3360   -7.8961 O   0  0  0  0  0  0  0  0  0  0  0  0
  -16.8987  -21.3799   -7.6882 N   0  0  0  0  0  0  0  0  0  0  0  0
  -20.5736  -25.5621   -8.3704 O   0  0  0  0  0  0  0  0  0  0  0  0
  -21.9810  -26.8269   -6.5285 O   0  0  0  0  0  0  0  0  0  0  0  0
  -15.9389  -22.0629   -8.3610 C   0  0  0  0  0  0  0  0  0  0  0  0
  -14.9354  -22.7091   -7.7313 C   0  0  0  0  0  0  0  0  0  0  0  0
  -14.8557  -22.6756   -6.3442 C   0  0  0  0  0  0  0  0  0  0  0  0
  -13.8173  -23.3414   -5.6393 N   0  0  0  0  0  0  0  0  0  0  0  0
  -14.1369  -23.3218   -8.6244 N   0  0  0  0  0  0  0  0  0  0  0  0
  -14.7120  -23.0073   -9.8145 C   0  0  0  0  0  0  0  0  0  0  0  0
  -15.8077  -22.2125   -9.6877 N   0  0  0  0  0  0  0  0  0  0  0  0
  -20.3819  -23.8374  -10.5658 H   0  0  0  0  0  0  0  0  0  0  0  0
  -20.3308  -22.7492   -9.1169 H   0  0  0  0  0  0  0  0  0  0  0  0
  -19.8289  -21.3719  -11.0154 H   0  0  0  0  0  0  0  0  0  0  0  0
  -18.9897  -23.6873  -12.3869 H   0  0  0  0  0  0  0  0  0  0  0  0
  -19.5014  -21.8136  -13.4501 H   0  0  0  0  0  0  0  0  0  0  0  0
  -16.8998  -23.9851  -11.2900 H   0  0  0  0  0  0  0  0  0  0  0  0
  -16.3801  -22.8790  -12.6140 H   0  0  0  0  0  0  0  0  0  0  0  0
  -16.4337  -20.9639  -11.2729 H   0  0  0  0  0  0  0  0  0  0  0  0
  -17.5734  -20.7946   -5.7631 H   0  0  0  0  0  0  0  0  0  0  0  0
  -20.2306  -26.3215  -10.9216 H   0  0  0  0  0  0  0  0  0  0  0  0
  -20.7022  -29.1062   -7.5863 H   0  0  0  0  0  0  0  0  0  0  0  0
  -22.9373  -27.0417   -6.6717 H   0  0  0  0  0  0  0  0  0  0  0  0
  -13.4238  -24.2442   -5.9866 H   0  0  0  0  0  0  0  0  0  0  0  0
  -13.4337  -22.9312   -4.7591 H   0  0  0  0  0  0  0  0  0  0  0  0
  -14.3269  -23.3680  -10.7537 H   0  0  0  0  0  0  0  0  0  0  0  0
  4  3  1  0
  1  4  1  6
  5  3  1  0
  6  5  1  0
  7  5  1  0
  7  8  1  0
  9  7  1  0
 10  6  1  0
 10  9  1  0
 12  1  2  0
 13  2  2  0
 14 11  2  0
 15  1  1  0
 16  2  1  0
 17 14  1  0
 18  2  1  0
 18  1  1  0
 19  2  1  0
 20 17  2  0
 21 20  1  0
 22 21  2  0
 22 11  1  0
 23 22  1  0
 24 21  1  0
 25 24  2  0
 10 26  1  0
 26 25  1  0
 26 20  1  0
  3 27  1  0
  3 28  1  0
  5 29  1  6
  7 30  1  6
  8 31  1  0
  9 32  1  0
  9 33  1  0
 10 34  1  6
 14 35  1  0
 15 36  1  0
 16 37  1  0
 19 38  1  0
 23 39  1  0
 23 40  1  0
 25 41  1  0
M  END
