
     RDKit          3D

 99103  0  0  0  0  0  0  0  0999 V2000
   20.6038   25.2636   17.7514 N   0  0  0  0  0  0  0  0  0  0  0  0
   19.5378   25.2928   16.7815 C   0  0  1  0  0  0  0  0  0  0  0  0
   16.5615   23.4869   18.4123 C   0  0  2  0  0  0  0  0  0  0  0  0
   20.9140   26.3422   18.6246 C   0  0  0  0  0  0  0  0  0  0  0  0
   20.0983   27.2877   18.8157 O   0  0  0  0  0  0  0  0  0  0  0  0
   20.1220   25.1478   15.3828 C   0  0  0  0  0  0  0  0  0  0  0  0
   16.7661   23.1615   19.9044 C   0  0  0  0  0  0  0  0  0  0  0  0
   20.9578   26.3493   15.1034 C   0  0  0  0  0  0  0  0  0  0  0  0
   18.2117   22.9062   20.2387 C   0  0  0  0  0  0  0  0  0  0  0  0
   14.0405   18.4241   20.0315 C   0  0  0  0  0  0  0  0  0  0  0  0
   18.7954   21.6669   19.9486 C   0  0  0  0  0  0  0  0  0  0  0  0
   18.9852   23.9065   20.8478 C   0  0  0  0  0  0  0  0  0  0  0  0
   22.2290   26.1792   14.5074 N   0  0  0  0  0  0  0  0  0  0  0  0
   20.5233   27.5115   15.3083 O   0  0  0  0  0  0  0  0  0  0  0  0
   20.1194   21.4144   20.3095 C   0  0  0  0  0  0  0  0  0  0  0  0
   20.3092   23.6508   21.2026 C   0  0  0  0  0  0  0  0  0  0  0  0
   20.8734   22.4029   20.9424 C   0  0  0  0  0  0  0  0  0  0  0  0
   14.0526   23.0123   18.1371 C   0  0  0  0  0  0  0  0  0  0  0  0
   18.6123   24.1880   17.1154 C   0  0  0  0  0  0  0  0  0  0  0  0
   23.1197   25.3772   18.8498 N   0  0  0  0  0  0  0  0  0  0  0  0
   18.8406   23.0134   16.7146 O   0  0  0  0  0  0  0  0  0  0  0  0
   22.2178   26.3066   19.2722 C   0  0  0  0  0  0  0  0  0  0  0  0
   17.5438   24.4749   18.0053 N   0  0  0  0  0  0  0  0  0  0  0  0
   14.8722   25.1625   18.9318 O   0  0  0  0  0  0  0  0  0  0  0  0
   22.5413   27.1663   20.3234 C   0  0  0  0  0  0  0  0  0  0  0  0
   12.7018   20.8550   14.6662 C   0  0  2  0  0  0  0  0  0  0  0  0
   13.4614   19.3414   19.0530 N   0  0  0  0  0  0  0  0  0  0  0  0
   15.4684   20.0411   18.0619 O   0  0  0  0  0  0  0  0  0  0  0  0
   23.7809   27.0292   20.9467 C   0  0  0  0  0  0  0  0  0  0  0  0
   24.6966   26.0719   20.4903 C   0  0  0  0  0  0  0  0  0  0  0  0
   25.9550   25.9271   21.0821 C   0  0  0  0  0  0  0  0  0  0  0  0
   26.8570   24.9808   20.5899 C   0  0  0  0  0  0  0  0  0  0  0  0
   26.4941   24.1551   19.5240 C   0  0  0  0  0  0  0  0  0  0  0  0
   13.2771   22.2732   14.5227 C   0  0  2  0  0  0  0  0  0  0  0  0
   25.2383   24.2865   18.9308 C   0  0  0  0  0  0  0  0  0  0  0  0
   24.3393   25.2420   19.4138 C   0  0  0  0  0  0  0  0  0  0  0  0
   15.1695   24.0684   18.0988 C   0  0  1  0  0  0  0  0  0  0  0  0
   14.7431   17.2680   19.3019 C   0  0  0  0  0  0  0  0  0  0  0  0
   14.0486   22.2281   16.8819 N   0  0  0  0  0  0  0  0  0  0  0  0
   13.4466   20.8873   17.0788 C   0  0  1  0  0  0  0  0  0  0  0  0
   12.9016   17.8556   20.8935 C   0  0  0  0  0  0  0  0  0  0  0  0
   13.4298   20.0848   15.7719 C   0  0  0  0  0  0  0  0  0  0  0  0
   15.0187   19.1794   20.9469 C   0  0  0  0  0  0  0  0  0  0  0  0
   12.7332   20.1102   13.3186 C   0  0  0  0  0  0  0  0  0  0  0  0
   14.1072   20.1616   12.6365 C   0  0  0  0  0  0  0  0  0  0  0  0
   14.6134   21.5985   12.5076 C   0  0  0  0  0  0  0  0  0  0  0  0
   14.6735   22.2688   13.8802 C   0  0  0  0  0  0  0  0  0  0  0  0
   13.2687   22.9780   15.8715 C   0  0  0  0  0  0  0  0  0  0  0  0
   14.2081   20.0778   18.0864 C   0  0  0  0  0  0  0  0  0  0  0  0
   21.1565   24.3766   17.7935 H   0  0  0  0  0  0  0  0  0  0  0  0
   18.9746   26.2511   16.8374 H   0  0  0  0  0  0  0  0  0  0  0  0
   16.6953   22.5477   17.8313 H   0  0  0  0  0  0  0  0  0  0  0  0
   20.7403   24.2262   15.3002 H   0  0  0  0  0  0  0  0  0  0  0  0
   19.3039   25.0901   14.6317 H   0  0  0  0  0  0  0  0  0  0  0  0
   16.4008   23.9900   20.5459 H   0  0  0  0  0  0  0  0  0  0  0  0
   16.1731   22.2628   20.1777 H   0  0  0  0  0  0  0  0  0  0  0  0
   18.2175   20.8894   19.4640 H   0  0  0  0  0  0  0  0  0  0  0  0
   18.5591   24.8786   21.0628 H   0  0  0  0  0  0  0  0  0  0  0  0
   22.8052   27.0114   14.2510 H   0  0  0  0  0  0  0  0  0  0  0  0
   22.6216   25.2263   14.3385 H   0  0  0  0  0  0  0  0  0  0  0  0
   20.5628   20.4501   20.0975 H   0  0  0  0  0  0  0  0  0  0  0  0
   20.8956   24.4177   21.6906 H   0  0  0  0  0  0  0  0  0  0  0  0
   21.9003   22.2050   21.2218 H   0  0  0  0  0  0  0  0  0  0  0  0
   13.0689   23.5123   18.2976 H   0  0  0  0  0  0  0  0  0  0  0  0
   14.1919   22.3809   19.0371 H   0  0  0  0  0  0  0  0  0  0  0  0
   17.4360   25.4496   18.3704 H   0  0  0  0  0  0  0  0  0  0  0  0
   14.4632   24.8232   19.7704 H   0  0  0  0  0  0  0  0  0  0  0  0
   21.8374   27.9077   20.6807 H   0  0  0  0  0  0  0  0  0  0  0  0
   11.6324   20.9417   14.9667 H   0  0  0  0  0  0  0  0  0  0  0  0
   12.4212   19.4537   19.0362 H   0  0  0  0  0  0  0  0  0  0  0  0
   24.0310   27.6797   21.7762 H   0  0  0  0  0  0  0  0  0  0  0  0
   26.2483   26.5551   21.9149 H   0  0  0  0  0  0  0  0  0  0  0  0
   27.8339   24.8779   21.0443 H   0  0  0  0  0  0  0  0  0  0  0  0
   27.1917   23.4159   19.1522 H   0  0  0  0  0  0  0  0  0  0  0  0
   12.5994   22.8499   13.8518 H   0  0  0  0  0  0  0  0  0  0  0  0
   24.9641   23.6451   18.1023 H   0  0  0  0  0  0  0  0  0  0  0  0
   15.2353   24.4821   17.0733 H   0  0  0  0  0  0  0  0  0  0  0  0
   14.0418   16.7741   18.5952 H   0  0  0  0  0  0  0  0  0  0  0  0
   15.6234   17.6236   18.7284 H   0  0  0  0  0  0  0  0  0  0  0  0
   15.1016   16.5095   20.0310 H   0  0  0  0  0  0  0  0  0  0  0  0
   12.3931   21.0090   17.4241 H   0  0  0  0  0  0  0  0  0  0  0  0
   12.1669   17.3116   20.2610 H   0  0  0  0  0  0  0  0  0  0  0  0
   12.3672   18.6738   21.4238 H   0  0  0  0  0  0  0  0  0  0  0  0
   13.2962   17.1468   21.6536 H   0  0  0  0  0  0  0  0  0  0  0  0
   14.4715   19.8493   15.4667 H   0  0  0  0  0  0  0  0  0  0  0  0
   12.9052   19.1177   15.9415 H   0  0  0  0  0  0  0  0  0  0  0  0
   16.0743   19.0108   20.6531 H   0  0  0  0  0  0  0  0  0  0  0  0
   14.9133   18.8343   21.9981 H   0  0  0  0  0  0  0  0  0  0  0  0
   14.8153   20.2715   20.9130 H   0  0  0  0  0  0  0  0  0  0  0  0
   11.9829   20.5708   12.6384 H   0  0  0  0  0  0  0  0  0  0  0  0
   12.4334   19.0495   13.4634 H   0  0  0  0  0  0  0  0  0  0  0  0
   14.8422   19.5515   13.2037 H   0  0  0  0  0  0  0  0  0  0  0  0
   14.0232   19.7161   11.6218 H   0  0  0  0  0  0  0  0  0  0  0  0
   15.6304   21.5893   12.0597 H   0  0  0  0  0  0  0  0  0  0  0  0
   13.9457   22.1756   11.8304 H   0  0  0  0  0  0  0  0  0  0  0  0
   15.0216   23.3162   13.7460 H   0  0  0  0  0  0  0  0  0  0  0  0
   15.4165   21.7523   14.5255 H   0  0  0  0  0  0  0  0  0  0  0  0
   13.6638   24.0025   15.7177 H   0  0  0  0  0  0  0  0  0  0  0  0
   12.2093   23.0963   16.2005 H   0  0  0  0  0  0  0  0  0  0  0  0
  2  1  1  0
  4  1  1  0
  5  4  2  0
  2  6  1  0
  3  7  1  0
  8  6  1  0
  9  7  1  0
 11  9  2  0
 12  9  1  0
 13  8  1  0
 14  8  2  0
 15 11  1  0
 16 12  2  0
 17 16  1  0
 17 15  2  0
 19  2  1  0
 21 19  2  0
 22  4  1  0
 22 20  2  0
 23 19  1  0
 23  3  1  0
 25 22  1  0
 27 10  1  0
 29 25  2  0
 30 29  1  0
 31 30  2  0
 32 31  1  0
 33 32  2  0
 34 26  1  0
 35 33  1  0
 36 35  2  0
 36 30  1  0
 36 20  1  0
 37 24  1  0
 37 18  1  0
 37  3  1  0
 10 38  1  0
 39 18  1  0
 40 39  1  0
 41 10  1  0
 26 42  1  0
 42 40  1  0
 43 10  1  0
 44 26  1  0
 45 44  1  0
 46 45  1  0
 47 46  1  0
 34 47  1  0
 48 34  1  0
 48 39  1  0
 40 49  1  0
 49 28  2  0
 49 27  1  0
  1 50  1  0
  2 51  1  6
  3 52  1  6
  6 53  1  0
  6 54  1  0
  7 55  1  0
  7 56  1  0
 11 57  1  0
 12 58  1  0
 13 59  1  0
 13 60  1  0
 15 61  1  0
 16 62  1  0
 17 63  1  0
 18 64  1  0
 18 65  1  0
 23 66  1  0
 24 67  1  0
 25 68  1  0
 26 69  1  1
 27 70  1  0
 29 71  1  0
 31 72  1  0
 32 73  1  0
 33 74  1  0
 34 75  1  6
 35 76  1  0
 37 77  1  6
 38 78  1  0
 38 79  1  0
 38 80  1  0
 40 81  1  1
 41 82  1  0
 41 83  1  0
 41 84  1  0
 42 85  1  0
 42 86  1  0
 43 87  1  0
 43 88  1  0
 43 89  1  0
 44 90  1  0
 44 91  1  0
 45 92  1  0
 45 93  1  0
 46 94  1  0
 46 95  1  0
 47 96  1  0
 47 97  1  0
 48 98  1  0
 48 99  1  0
M  END
