
     RDKit          3D

 35 36  0  0  0  0  0  0  0  0999 V2000
   25.0860   -2.4043    8.3781 P   0  0  0  0  0  0  0  0  0  0  0  0
   22.9972   -1.0065    8.8841 C   0  0  0  0  0  0  0  0  0  0  0  0
   24.1036   -1.6044    9.4938 O   0  0  0  0  0  0  0  0  0  0  0  0
   22.2359   -0.2687    9.9942 C   0  0  1  0  0  0  0  0  0  0  0  0
   21.1982    0.4955    9.4259 O   0  0  0  0  0  0  0  0  0  0  0  0
   21.6341   -1.2272   11.0382 C   0  0  1  0  0  0  0  0  0  0  0  0
   21.7070   -0.6722   12.3350 O   0  0  0  0  0  0  0  0  0  0  0  0
   20.2047   -1.3595   10.5727 C   0  0  1  0  0  0  0  0  0  0  0  0
   19.3268   -1.6225   11.6365 O   0  0  0  0  0  0  0  0  0  0  0  0
   19.9807    0.0235    9.9496 C   0  0  2  0  0  0  0  0  0  0  0  0
   18.9478    0.0488    8.8894 N   0  0  0  0  0  0  0  0  0  0  0  0
   17.7516    1.8107   10.0432 O   0  0  0  0  0  0  0  0  0  0  0  0
   19.0827   -0.7161    7.7518 C   0  0  0  0  0  0  0  0  0  0  0  0
   20.0503   -1.5063    7.6141 O   0  0  0  0  0  0  0  0  0  0  0  0
   18.1778   -0.6245    6.7436 N   0  0  0  0  0  0  0  0  0  0  0  0
   17.1445    0.2464    6.8052 C   0  0  0  0  0  0  0  0  0  0  0  0
   16.3185    0.3095    5.8581 O   0  0  0  0  0  0  0  0  0  0  0  0
   17.0059    1.0731    7.9102 C   0  0  0  0  0  0  0  0  0  0  0  0
   17.9213    0.9614    8.9530 C   0  0  0  0  0  0  0  0  0  0  0  0
   24.2928   -3.1732    7.3468 O   0  0  0  0  0  0  0  0  0  0  0  0
   25.9968   -3.4680    9.3085 O   0  0  0  0  0  0  0  0  0  0  0  0
   26.1030   -1.2936    7.6265 O   0  0  0  0  0  0  0  0  0  0  0  0
   23.3233   -0.2722    8.1131 H   0  0  0  0  0  0  0  0  0  0  0  0
   22.3488   -1.7808    8.4254 H   0  0  0  0  0  0  0  0  0  0  0  0
   22.9495    0.4282   10.4887 H   0  0  0  0  0  0  0  0  0  0  0  0
   22.1351   -2.2202   11.0499 H   0  0  0  0  0  0  0  0  0  0  0  0
   22.5913   -0.2388   12.4570 H   0  0  0  0  0  0  0  0  0  0  0  0
   20.1484   -2.1924    9.8422 H   0  0  0  0  0  0  0  0  0  0  0  0
   19.8965   -1.8586   12.4143 H   0  0  0  0  0  0  0  0  0  0  0  0
   19.7397    0.7064   10.7804 H   0  0  0  0  0  0  0  0  0  0  0  0
   17.8739    1.5241   11.0051 H   0  0  0  0  0  0  0  0  0  0  0  0
   18.2881   -1.2285    5.8966 H   0  0  0  0  0  0  0  0  0  0  0  0
   16.1927    1.7871    7.9665 H   0  0  0  0  0  0  0  0  0  0  0  0
   26.7519   -3.7319    8.7243 H   0  0  0  0  0  0  0  0  0  0  0  0
   25.6190   -1.0232    6.8058 H   0  0  0  0  0  0  0  0  0  0  0  0
  3  2  1  0
  3  1  1  0
  4  2  1  0
  5  4  1  0
  6  4  1  0
  6  7  1  0
  8  6  1  0
  8  9  1  0
 10  8  1  0
 10  5  1  0
 10 11  1  0
 13 11  1  0
 14 13  2  0
 15 13  1  0
 16 15  1  0
 17 16  2  0
 18 16  1  0
 19 18  2  0
 19 12  1  0
 19 11  1  0
 20  1  2  0
 21  1  1  0
 22  1  1  0
  2 23  1  0
  2 24  1  0
  4 25  1  1
  6 26  1  1
  7 27  1  0
  8 28  1  6
  9 29  1  0
 10 30  1  1
 12 31  1  0
 15 32  1  0
 18 33  1  0
 21 34  1  0
 22 35  1  0
M  END
