
     RDKit          3D

 22 22  0  0  0  0  0  0  0  0999 V2000
   27.3786   45.6563   -1.4101 N   0  0  0  0  0  0  0  0  0  0  0  0
   27.8439   45.7493   -0.0651 C   0  0  0  0  0  0  0  0  0  0  0  0
   28.0254   44.6914    0.5960 O   0  0  0  0  0  0  0  0  0  0  0  0
   28.0928   47.0935    0.5856 C   0  0  1  0  0  0  0  0  0  0  0  0
   29.4123   47.1516    1.0631 O   0  0  0  0  0  0  0  0  0  0  0  0
   27.8163   48.3178   -0.3351 C   0  0  2  0  0  0  0  0  0  0  0  0
   27.4998   49.4415    0.4531 O   0  0  0  0  0  0  0  0  0  0  0  0
   26.7005   48.0316   -1.3640 C   0  0  1  0  0  0  0  0  0  0  0  0
   26.3634   49.2672   -2.2280 C   0  0  0  0  0  0  0  0  0  0  0  0
   26.1179   50.3948   -1.4299 O   0  0  0  0  0  0  0  0  0  0  0  0
   27.1101   46.8307   -2.2344 C   0  0  0  0  0  0  0  0  0  0  0  0
   27.2599   44.7109   -1.8390 H   0  0  0  0  0  0  0  0  0  0  0  0
   27.4108   47.1453    1.4618 H   0  0  0  0  0  0  0  0  0  0  0  0
   29.8265   46.2602    0.9170 H   0  0  0  0  0  0  0  0  0  0  0  0
   28.7431   48.5579   -0.9025 H   0  0  0  0  0  0  0  0  0  0  0  0
   28.0384   49.3894    1.2860 H   0  0  0  0  0  0  0  0  0  0  0  0
   25.7747   47.7539   -0.8105 H   0  0  0  0  0  0  0  0  0  0  0  0
   27.2230   49.4762   -2.9038 H   0  0  0  0  0  0  0  0  0  0  0  0
   25.4783   49.0563   -2.8683 H   0  0  0  0  0  0  0  0  0  0  0  0
   27.0081   50.7639   -1.1929 H   0  0  0  0  0  0  0  0  0  0  0  0
   26.2925   46.5924   -2.9490 H   0  0  0  0  0  0  0  0  0  0  0  0
   28.0229   47.0701   -2.8217 H   0  0  0  0  0  0  0  0  0  0  0  0
  2  1  1  0
  3  2  2  0
  4  2  1  0
  4  5  1  0
  6  4  1  0
  6  7  1  0
  8  6  1  0
  8  9  1  0
 10  9  1  0
 11  8  1  0
 11  1  1  0
  1 12  1  0
  4 13  1  1
  5 14  1  0
  6 15  1  6
  7 16  1  0
  8 17  1  1
  9 18  1  0
  9 19  1  0
 10 20  1  0
 11 21  1  0
 11 22  1  0
M  END
