
     RDKit          3D

 22 22  0  0  0  0  0  0  0  0999 V2000
  -17.7618   57.1289   49.5956 N   0  0  0  0  0  0  0  0  0  0  0  0
  -18.1952   56.5867   48.3487 C   0  0  0  0  0  0  0  0  0  0  0  0
  -18.4279   55.3536   48.2633 O   0  0  0  0  0  0  0  0  0  0  0  0
  -18.3636   57.4593   47.1271 C   0  0  1  0  0  0  0  0  0  0  0  0
  -19.6987   57.4119   46.6892 O   0  0  0  0  0  0  0  0  0  0  0  0
  -17.9300   58.9378   47.3329 C   0  0  2  0  0  0  0  0  0  0  0  0
  -17.5140   59.4729   46.0998 O   0  0  0  0  0  0  0  0  0  0  0  0
  -16.8345   59.0840   48.4203 C   0  0  1  0  0  0  0  0  0  0  0  0
  -16.3492   60.5369   48.5986 C   0  0  0  0  0  0  0  0  0  0  0  0
  -16.3746   60.9133   49.9507 O   0  0  0  0  0  0  0  0  0  0  0  0
  -17.3764   58.5262   49.7470 C   0  0  0  0  0  0  0  0  0  0  0  0
  -17.7060   56.5017   50.4295 H   0  0  0  0  0  0  0  0  0  0  0  0
  -17.7292   57.0083   46.3331 H   0  0  0  0  0  0  0  0  0  0  0  0
  -19.7114   57.6679   45.7290 H   0  0  0  0  0  0  0  0  0  0  0  0
  -18.8131   59.5266   47.6676 H   0  0  0  0  0  0  0  0  0  0  0  0
  -17.0744   60.3446   46.2818 H   0  0  0  0  0  0  0  0  0  0  0  0
  -15.9524   58.4735   48.1213 H   0  0  0  0  0  0  0  0  0  0  0  0
  -16.9952   61.2217   48.0055 H   0  0  0  0  0  0  0  0  0  0  0  0
  -15.3110   60.6264   48.2067 H   0  0  0  0  0  0  0  0  0  0  0  0
  -15.5890   61.5042   50.0867 H   0  0  0  0  0  0  0  0  0  0  0  0
  -16.5953   58.6027   50.5345 H   0  0  0  0  0  0  0  0  0  0  0  0
  -18.2628   59.1078   50.0816 H   0  0  0  0  0  0  0  0  0  0  0  0
  2  1  1  0
  3  2  2  0
  4  2  1  0
  4  5  1  0
  6  4  1  0
  6  7  1  0
  8  6  1  0
  8  9  1  0
 10  9  1  0
 11  8  1  0
 11  1  1  0
  1 12  1  0
  4 13  1  6
  5 14  1  0
  6 15  1  1
  7 16  1  0
  8 17  1  6
  9 18  1  0
  9 19  1  0
 10 20  1  0
 11 21  1  0
 11 22  1  0
M  END
