
     RDKit          3D

 47 48  0  0  0  0  0  0  0  0999 V2000
   18.8864  -19.8106   -7.0045 N   0  0  0  0  0  0  0  0  0  0  0  0
   19.4564  -19.7629   -5.8313 C   0  0  0  0  0  0  0  0  0  0  0  0
   20.2272  -20.9414   -5.4332 C   0  0  0  0  0  0  0  0  0  0  0  0
   19.7609  -21.7914   -4.6297 O   0  0  0  0  0  0  0  0  0  0  0  0
   19.1156  -18.7334   -4.7750 C   0  0  0  0  0  0  0  0  0  0  0  0
   17.9423  -19.2605   -4.0013 C   0  0  0  0  0  0  0  0  0  0  0  0
   18.1303  -20.3341   -3.1147 C   0  0  0  0  0  0  0  0  0  0  0  0
   16.6398  -18.9260   -4.4089 C   0  0  0  0  0  0  0  0  0  0  0  0
   17.0420  -21.1152   -2.7266 C   0  0  0  0  0  0  0  0  0  0  0  0
   15.5576  -19.7189   -4.0314 C   0  0  0  0  0  0  0  0  0  0  0  0
   15.7657  -20.8321   -3.2113 C   0  0  0  0  0  0  0  0  0  0  0  0
   14.7110  -21.6672   -2.8674 O   0  0  0  0  0  0  0  0  0  0  0  0
   17.1147  -15.0095   -7.4528 P   0  0  0  0  0  0  0  0  0  0  0  0
   15.8504  -14.2763   -7.0747 O   0  0  0  0  0  0  0  0  0  0  0  0
   17.7776  -15.7862   -6.1217 O   0  0  0  0  0  0  0  0  0  0  0  0
   18.2474  -13.9543   -8.0939 O   0  0  0  0  0  0  0  0  0  0  0  0
   16.8193  -16.1042   -8.6966 O   0  0  0  0  0  0  0  0  0  0  0  0
   21.4624  -21.1510   -6.0157 O   0  0  0  0  0  0  0  0  0  0  0  0
   15.7732  -19.6438  -11.0824 N   0  0  0  0  0  0  0  0  0  0  0  0
   16.7938  -20.5698  -10.7028 C   0  0  0  0  0  0  0  0  0  0  0  0
   17.0596  -21.7471  -11.5980 C   0  0  0  0  0  0  0  0  0  0  0  0
   17.5313  -20.3615   -9.5845 C   0  0  0  0  0  0  0  0  0  0  0  0
   18.5464  -21.2708   -9.2888 O   0  0  0  0  0  0  0  0  0  0  0  0
   17.2580  -19.1668   -8.7163 C   0  0  0  0  0  0  0  0  0  0  0  0
   17.9551  -18.8966   -7.5767 C   0  0  0  0  0  0  0  0  0  0  0  0
   16.1300  -18.2671   -9.1370 C   0  0  0  0  0  0  0  0  0  0  0  0
   15.8078  -17.0141   -8.3665 C   0  0  0  0  0  0  0  0  0  0  0  0
   15.4697  -18.5064  -10.2831 C   0  0  0  0  0  0  0  0  0  0  0  0
   17.2234  -22.1707   -1.8992 F   0  0  0  0  0  0  0  0  0  0  0  0
   18.9078  -17.7419   -5.2056 H   0  0  0  0  0  0  0  0  0  0  0  0
   19.9829  -18.5809   -4.0966 H   0  0  0  0  0  0  0  0  0  0  0  0
   19.1234  -20.6113   -2.7855 H   0  0  0  0  0  0  0  0  0  0  0  0
   16.4622  -18.0946   -5.0715 H   0  0  0  0  0  0  0  0  0  0  0  0
   14.5651  -19.4815   -4.3926 H   0  0  0  0  0  0  0  0  0  0  0  0
   13.7691  -21.4954   -3.1994 H   0  0  0  0  0  0  0  0  0  0  0  0
   18.4170  -15.1369   -5.7335 H   0  0  0  0  0  0  0  0  0  0  0  0
   18.6638  -13.5218   -7.3060 H   0  0  0  0  0  0  0  0  0  0  0  0
   22.0142  -21.9688   -5.7858 H   0  0  0  0  0  0  0  0  0  0  0  0
   15.2296  -19.7912  -11.9621 H   0  0  0  0  0  0  0  0  0  0  0  0
   18.0586  -21.6395  -12.0704 H   0  0  0  0  0  0  0  0  0  0  0  0
   17.0316  -22.6878  -11.0082 H   0  0  0  0  0  0  0  0  0  0  0  0
   16.2956  -21.8209  -12.3999 H   0  0  0  0  0  0  0  0  0  0  0  0
   19.4486  -20.9976   -8.9268 H   0  0  0  0  0  0  0  0  0  0  0  0
   17.7705  -17.9890   -7.0540 H   0  0  0  0  0  0  0  0  0  0  0  0
   15.7269  -17.2451   -7.2817 H   0  0  0  0  0  0  0  0  0  0  0  0
   14.8260  -16.5895   -8.6719 H   0  0  0  0  0  0  0  0  0  0  0  0
   14.6894  -17.8337  -10.6193 H   0  0  0  0  0  0  0  0  0  0  0  0
  2  1  2  3
  3  2  1  0
  4  3  2  0
  5  2  1  0
  6  5  1  0
  7  6  2  0
  8  6  1  0
  9  7  1  0
 10  8  2  0
 11 10  1  0
 11  9  2  0
 12 11  1  0
 14 13  2  0
 15 13  1  0
 16 13  1  0
 17 13  1  0
 18  3  1  0
 20 19  1  0
 21 20  1  0
 22 20  2  0
 23 22  1  0
 24 22  1  0
 25 24  2  3
 25  1  1  0
 26 24  1  0
 27 26  1  0
 27 17  1  0
 28 19  1  0
 28 26  2  0
 29  9  1  0
  5 30  1  0
  5 31  1  0
  7 32  1  0
  8 33  1  0
 10 34  1  0
 12 35  1  0
 15 36  1  0
 16 37  1  0
 18 38  1  0
 19 39  1  0
 21 40  1  0
 21 41  1  0
 21 42  1  0
 23 43  1  0
 25 44  1  0
 27 45  1  0
 27 46  1  0
 28 47  1  0
M  END
