
     RDKit          3D

 47 48  0  0  0  0  0  0  0  0999 V2000
   19.8418  -20.0841   -7.5596 N   0  0  0  0  0  0  0  0  0  0  0  0
   20.4689  -20.0534   -6.4153 C   0  0  0  0  0  0  0  0  0  0  0  0
   21.3374  -21.1928   -6.1177 C   0  0  0  0  0  0  0  0  0  0  0  0
   22.4492  -21.3395   -6.6904 O   0  0  0  0  0  0  0  0  0  0  0  0
   20.1161  -19.1025   -5.2914 C   0  0  0  0  0  0  0  0  0  0  0  0
   19.0238  -19.7472   -4.4887 C   0  0  0  0  0  0  0  0  0  0  0  0
   19.3307  -20.8465   -3.6694 C   0  0  0  0  0  0  0  0  0  0  0  0
   17.6819  -19.4854   -4.8130 C   0  0  0  0  0  0  0  0  0  0  0  0
   18.3198  -21.7197   -3.2687 C   0  0  0  0  0  0  0  0  0  0  0  0
   16.6773  -20.3694   -4.4237 C   0  0  0  0  0  0  0  0  0  0  0  0
   17.0032  -21.5036   -3.6739 C   0  0  0  0  0  0  0  0  0  0  0  0
   16.0271  -22.4262   -3.3217 O   0  0  0  0  0  0  0  0  0  0  0  0
   17.7523  -15.4213   -7.6600 P   0  0  0  0  0  0  0  0  0  0  0  0
   16.4733  -14.7980   -7.1554 O   0  0  0  0  0  0  0  0  0  0  0  0
   18.5498  -16.2334   -6.4275 O   0  0  0  0  0  0  0  0  0  0  0  0
   18.7720  -14.2560   -8.3001 O   0  0  0  0  0  0  0  0  0  0  0  0
   17.4424  -16.4542   -8.9523 O   0  0  0  0  0  0  0  0  0  0  0  0
   20.9497  -22.0796   -5.1316 O   0  0  0  0  0  0  0  0  0  0  0  0
   16.5118  -19.9389  -11.4633 N   0  0  0  0  0  0  0  0  0  0  0  0
   17.6113  -20.8084  -11.1836 C   0  0  0  0  0  0  0  0  0  0  0  0
   17.9078  -21.9196  -12.1507 C   0  0  0  0  0  0  0  0  0  0  0  0
   18.3915  -20.6033  -10.0941 C   0  0  0  0  0  0  0  0  0  0  0  0
   19.4799  -21.4525   -9.8968 O   0  0  0  0  0  0  0  0  0  0  0  0
   18.0849  -19.4740   -9.1526 C   0  0  0  0  0  0  0  0  0  0  0  0
   18.8218  -19.2110   -8.0365 C   0  0  0  0  0  0  0  0  0  0  0  0
   16.8780  -18.6362   -9.4694 C   0  0  0  0  0  0  0  0  0  0  0  0
   16.5135  -17.4475   -8.6198 C   0  0  0  0  0  0  0  0  0  0  0  0
   16.1752  -18.8654  -10.5920 C   0  0  0  0  0  0  0  0  0  0  0  0
   18.6157  -22.7988   -2.5071 F   0  0  0  0  0  0  0  0  0  0  0  0
   19.8193  -18.1083   -5.6591 H   0  0  0  0  0  0  0  0  0  0  0  0
   21.0060  -18.9226   -4.6501 H   0  0  0  0  0  0  0  0  0  0  0  0
   20.3564  -21.0691   -3.4048 H   0  0  0  0  0  0  0  0  0  0  0  0
   17.4137  -18.6375   -5.4220 H   0  0  0  0  0  0  0  0  0  0  0  0
   15.6531  -20.1849   -4.7224 H   0  0  0  0  0  0  0  0  0  0  0  0
   15.7985  -22.6115   -2.3520 H   0  0  0  0  0  0  0  0  0  0  0  0
   19.3896  -15.7282   -6.2840 H   0  0  0  0  0  0  0  0  0  0  0  0
   19.2128  -13.8466   -7.5133 H   0  0  0  0  0  0  0  0  0  0  0  0
   20.1018  -21.9271   -4.5986 H   0  0  0  0  0  0  0  0  0  0  0  0
   15.9333  -20.0814  -12.3214 H   0  0  0  0  0  0  0  0  0  0  0  0
   18.8708  -21.7196  -12.6661 H   0  0  0  0  0  0  0  0  0  0  0  0
   17.9748  -22.8874  -11.6099 H   0  0  0  0  0  0  0  0  0  0  0  0
   17.1090  -22.0079  -12.9164 H   0  0  0  0  0  0  0  0  0  0  0  0
   20.4337  -21.1272   -9.8331 H   0  0  0  0  0  0  0  0  0  0  0  0
   18.6045  -18.3449   -7.4590 H   0  0  0  0  0  0  0  0  0  0  0  0
   16.5061  -17.7357   -7.5458 H   0  0  0  0  0  0  0  0  0  0  0  0
   15.4904  -17.0784   -8.8536 H   0  0  0  0  0  0  0  0  0  0  0  0
   15.3346  -18.2336  -10.8537 H   0  0  0  0  0  0  0  0  0  0  0  0
  2  1  2  3
  3  2  1  0
  4  3  2  0
  5  2  1  0
  6  5  1  0
  7  6  2  0
  8  6  1  0
  9  7  1  0
 10  8  2  0
 11 10  1  0
 11  9  2  0
 12 11  1  0
 14 13  2  0
 15 13  1  0
 16 13  1  0
 17 13  1  0
 18  3  1  0
 20 19  1  0
 21 20  1  0
 22 20  2  0
 23 22  1  0
 24 22  1  0
 25 24  2  3
 25  1  1  0
 26 24  1  0
 27 26  1  0
 27 17  1  0
 28 19  1  0
 28 26  2  0
 29  9  1  0
  5 30  1  0
  5 31  1  0
  7 32  1  0
  8 33  1  0
 10 34  1  0
 12 35  1  0
 15 36  1  0
 16 37  1  0
 18 38  1  0
 19 39  1  0
 21 40  1  0
 21 41  1  0
 21 42  1  0
 23 43  1  0
 25 44  1  0
 27 45  1  0
 27 46  1  0
 28 47  1  0
M  END
