
     RDKit          3D

 35 37  0  0  0  0  0  0  0  0999 V2000
   29.2254   -3.3245   -0.9111 C   0  0  0  0  0  0  0  0  0  0  0  0
   29.3987   -3.3037    0.4939 C   0  0  0  0  0  0  0  0  0  0  0  0
   28.5139   -2.4754    1.2507 C   0  0  0  0  0  0  0  0  0  0  0  0
   27.5656   -1.7542    0.6151 N   0  0  0  0  0  0  0  0  0  0  0  0
   27.4234   -1.7943   -0.7257 C   0  0  0  0  0  0  0  0  0  0  0  0
   28.2438   -2.5724   -1.4795 N   0  0  0  0  0  0  0  0  0  0  0  0
   28.5734   -2.3455    2.6682 N   0  0  0  0  0  0  0  0  0  0  0  0
   30.0783   -4.0894   -1.7249 C   0  0  0  0  0  0  0  0  0  0  0  0
   31.1120   -4.8312   -1.1620 C   0  0  0  0  0  0  0  0  0  0  0  0
   31.2939   -4.8295    0.2104 C   0  0  0  0  0  0  0  0  0  0  0  0
   30.4477   -4.0694    1.0503 C   0  0  0  0  0  0  0  0  0  0  0  0
   26.4074   -1.0222   -1.3434 N   0  0  0  0  0  0  0  0  0  0  0  0
   30.6766   -4.0448    2.4211 O   0  0  0  0  0  0  0  0  0  0  0  0
   31.6094   -4.8746    3.0150 C   0  0  0  0  0  0  0  0  0  0  0  0
   32.7483   -5.2574    2.3066 C   0  0  0  0  0  0  0  0  0  0  0  0
   33.7076   -6.0440    2.9258 C   0  0  0  0  0  0  0  0  0  0  0  0
   33.5364   -6.4465    4.2642 C   0  0  0  0  0  0  0  0  0  0  0  0
   32.3913   -6.0542    4.9661 C   0  0  0  0  0  0  0  0  0  0  0  0
   31.4279   -5.2655    4.3398 C   0  0  0  0  0  0  0  0  0  0  0  0
   34.4894   -7.2273    4.9173 O   0  0  0  0  0  0  0  0  0  0  0  0
   35.8420   -6.8170    5.0666 C   0  0  0  0  0  0  0  0  0  0  0  0
   28.3301   -3.1666    3.2660 H   0  0  0  0  0  0  0  0  0  0  0  0
   29.1398   -1.5986    3.1235 H   0  0  0  0  0  0  0  0  0  0  0  0
   29.9432   -4.0944   -2.7995 H   0  0  0  0  0  0  0  0  0  0  0  0
   31.7719   -5.4087   -1.7968 H   0  0  0  0  0  0  0  0  0  0  0  0
   32.1223   -5.4045    0.6004 H   0  0  0  0  0  0  0  0  0  0  0  0
   25.6089   -1.4881   -1.8289 H   0  0  0  0  0  0  0  0  0  0  0  0
   26.4478    0.0209   -1.3186 H   0  0  0  0  0  0  0  0  0  0  0  0
   32.8875   -4.9384    1.2812 H   0  0  0  0  0  0  0  0  0  0  0  0
   34.5802   -6.3250    2.3532 H   0  0  0  0  0  0  0  0  0  0  0  0
   32.2537   -6.3565    5.9966 H   0  0  0  0  0  0  0  0  0  0  0  0
   30.5476   -4.9508    4.8860 H   0  0  0  0  0  0  0  0  0  0  0  0
   35.8875   -5.7093    5.0309 H   0  0  0  0  0  0  0  0  0  0  0  0
   36.2410   -7.1513    6.0479 H   0  0  0  0  0  0  0  0  0  0  0  0
   36.4612   -7.2184    4.2363 H   0  0  0  0  0  0  0  0  0  0  0  0
  2  1  1  0
  3  2  2  0
  4  3  1  0
  5  4  2  0
  6  5  1  0
  6  1  2  0
  7  3  1  0
  8  1  1  0
  9  8  2  0
 10  9  1  0
 11 10  2  0
 11  2  1  0
 12  5  1  0
 13 11  1  0
 14 13  1  0
 15 14  2  0
 16 15  1  0
 17 16  2  0
 18 17  1  0
 19 14  1  0
 19 18  2  0
 20 17  1  0
 21 20  1  0
  7 22  1  0
  7 23  1  0
  8 24  1  0
  9 25  1  0
 10 26  1  0
 12 27  1  0
 12 28  1  0
 15 29  1  0
 16 30  1  0
 18 31  1  0
 19 32  1  0
 21 33  1  0
 21 34  1  0
 21 35  1  0
M  END
