
     RDKit          3D

 35 37  0  0  0  0  0  0  0  0999 V2000
   28.7942   -3.8281    0.3726 C   0  0  0  0  0  0  0  0  0  0  0  0
   28.9676   -3.8073    1.7776 C   0  0  0  0  0  0  0  0  0  0  0  0
   28.0828   -2.9791    2.5343 C   0  0  0  0  0  0  0  0  0  0  0  0
   27.1344   -2.2578    1.8987 N   0  0  0  0  0  0  0  0  0  0  0  0
   26.9922   -2.2980    0.5580 C   0  0  0  0  0  0  0  0  0  0  0  0
   27.8126   -3.0761   -0.1959 N   0  0  0  0  0  0  0  0  0  0  0  0
   28.1422   -2.8491    3.9519 N   0  0  0  0  0  0  0  0  0  0  0  0
   29.6471   -4.5931   -0.4412 C   0  0  0  0  0  0  0  0  0  0  0  0
   30.6809   -5.3348    0.1217 C   0  0  0  0  0  0  0  0  0  0  0  0
   30.8628   -5.3332    1.4940 C   0  0  0  0  0  0  0  0  0  0  0  0
   30.0165   -4.5730    2.3339 C   0  0  0  0  0  0  0  0  0  0  0  0
   25.9762   -1.5258   -0.0597 N   0  0  0  0  0  0  0  0  0  0  0  0
   30.2454   -4.5484    3.7047 O   0  0  0  0  0  0  0  0  0  0  0  0
   31.1782   -5.3783    4.2987 C   0  0  0  0  0  0  0  0  0  0  0  0
   30.8042   -6.1860    5.3726 C   0  0  0  0  0  0  0  0  0  0  0  0
   31.7285   -7.0571    5.9286 C   0  0  0  0  0  0  0  0  0  0  0  0
   33.0341   -7.1313    5.4064 C   0  0  0  0  0  0  0  0  0  0  0  0
   33.3974   -6.3184    4.3270 C   0  0  0  0  0  0  0  0  0  0  0  0
   32.4663   -5.4422    3.7721 C   0  0  0  0  0  0  0  0  0  0  0  0
   33.9817   -8.0062    5.9366 O   0  0  0  0  0  0  0  0  0  0  0  0
   34.0016   -9.3926    5.6242 C   0  0  0  0  0  0  0  0  0  0  0  0
   27.8485   -1.9497    4.3940 H   0  0  0  0  0  0  0  0  0  0  0  0
   28.1549   -3.6839    4.5754 H   0  0  0  0  0  0  0  0  0  0  0  0
   29.5120   -4.5980   -1.5158 H   0  0  0  0  0  0  0  0  0  0  0  0
   31.3408   -5.9123   -0.5131 H   0  0  0  0  0  0  0  0  0  0  0  0
   31.6911   -5.9081    1.8841 H   0  0  0  0  0  0  0  0  0  0  0  0
   25.6145   -0.6608    0.4000 H   0  0  0  0  0  0  0  0  0  0  0  0
   25.5796   -1.8149   -0.9813 H   0  0  0  0  0  0  0  0  0  0  0  0
   29.7970   -6.1392    5.7673 H   0  0  0  0  0  0  0  0  0  0  0  0
   31.4110   -7.6715    6.7592 H   0  0  0  0  0  0  0  0  0  0  0  0
   34.3981   -6.3719    3.9174 H   0  0  0  0  0  0  0  0  0  0  0  0
   32.7427   -4.8220    2.9288 H   0  0  0  0  0  0  0  0  0  0  0  0
   33.1698   -9.6154    4.9250 H   0  0  0  0  0  0  0  0  0  0  0  0
   34.9574   -9.6629    5.1270 H   0  0  0  0  0  0  0  0  0  0  0  0
   33.8554   -9.9978    6.5442 H   0  0  0  0  0  0  0  0  0  0  0  0
  2  1  1  0
  3  2  2  0
  4  3  1  0
  5  4  2  0
  6  5  1  0
  6  1  2  0
  7  3  1  0
  8  1  1  0
  9  8  2  0
 10  9  1  0
 11 10  2  0
 11  2  1  0
 12  5  1  0
 13 11  1  0
 14 13  1  0
 15 14  2  0
 16 15  1  0
 17 16  2  0
 18 17  1  0
 19 14  1  0
 19 18  2  0
 20 17  1  0
 21 20  1  0
  7 22  1  0
  7 23  1  0
  8 24  1  0
  9 25  1  0
 10 26  1  0
 12 27  1  0
 12 28  1  0
 15 29  1  0
 16 30  1  0
 18 31  1  0
 19 32  1  0
 21 33  1  0
 21 34  1  0
 21 35  1  0
M  END
