
     RDKit          3D

 15 14  0  0  0  0  0  0  0  0999 V2000
   12.0451  -22.2860   38.1286 C   0  0  0  0  0  0  0  0  0  0  0  0
   10.7829  -21.5186   37.7560 C   0  0  0  0  0  0  0  0  0  0  0  0
   10.5417  -21.5121   36.2835 C   0  0  0  0  0  0  0  0  0  0  0  0
    9.3856  -21.6555   35.8091 O   0  0  0  0  0  0  0  0  0  0  0  0
   11.6039  -21.2705   35.4297 O   0  0  0  0  0  0  0  0  0  0  0  0
   10.5127  -24.1445   36.7520 O   0  0  0  0  0  0  0  0  0  0  0  0
   12.9519  -23.7206   36.0717 O   0  0  0  0  0  0  0  0  0  0  0  0
   12.5212  -24.9252   38.1833 O   0  0  0  0  0  0  0  0  0  0  0  0
   12.0557  -23.8223   37.2682 S   0  0  0  0  0  0  0  0  0  0  0  0
   12.9489  -21.7057   37.8433 H   0  0  0  0  0  0  0  0  0  0  0  0
   12.0668  -22.4890   39.2211 H   0  0  0  0  0  0  0  0  0  0  0  0
   10.8672  -20.4638   38.0961 H   0  0  0  0  0  0  0  0  0  0  0  0
    9.9028  -21.9802   38.2534 H   0  0  0  0  0  0  0  0  0  0  0  0
   12.1614  -22.0330   35.0634 H   0  0  0  0  0  0  0  0  0  0  0  0
   10.6168  -24.8136   36.0288 H   0  0  0  0  0  0  0  0  0  0  0  0
  2  1  1  0
  3  2  1  0
  4  3  2  0
  5  3  1  0
  9  7  2  0
  9  8  2  0
  9  6  1  0
  9  1  1  0
  1 10  1  0
  1 11  1  0
  2 12  1  0
  2 13  1  0
  5 14  1  0
  6 15  1  0
M  END
