
     RDKit          3D

 15 16  0  0  0  0  0  0  0  0999 V2000
   35.7169   -2.1608   49.9630 N   0  0  0  0  0  0  0  0  0  0  0  0
   35.5038   -1.5975   48.7295 C   0  0  0  0  0  0  0  0  0  0  0  0
   36.3698   -1.8317   47.6959 N   0  0  0  0  0  0  0  0  0  0  0  0
   37.4380   -2.6343   47.9347 C   0  0  0  0  0  0  0  0  0  0  0  0
   37.6775   -3.2049   49.1410 C   0  0  0  0  0  0  0  0  0  0  0  0
   36.7956   -2.9698   50.2001 C   0  0  0  0  0  0  0  0  0  0  0  0
   36.9938   -3.5427   51.4880 N   0  0  0  0  0  0  0  0  0  0  0  0
   38.8047   -3.9474   49.0907 N   0  0  0  0  0  0  0  0  0  0  0  0
   39.2132   -3.7851   47.8002 C   0  0  0  0  0  0  0  0  0  0  0  0
   38.3955   -2.9862   47.0687 N   0  0  0  0  0  0  0  0  0  0  0  0
   34.6427   -0.9627   48.5728 H   0  0  0  0  0  0  0  0  0  0  0  0
   36.6160   -4.4886   51.7184 H   0  0  0  0  0  0  0  0  0  0  0  0
   37.5227   -3.0190   52.2203 H   0  0  0  0  0  0  0  0  0  0  0  0
   40.1043   -4.2493   47.3986 H   0  0  0  0  0  0  0  0  0  0  0  0
   38.4926   -2.7113   46.0663 H   0  0  0  0  0  0  0  0  0  0  0  0
  2  1  2  0
  3  2  1  0
  4  3  2  0
  5  4  1  0
  6  1  1  0
  6  5  2  0
  7  6  1  0
  8  5  1  0
  9  8  2  0
 10  4  1  0
 10  9  1  0
  2 11  1  0
  7 12  1  0
  7 13  1  0
  9 14  1  0
 10 15  1  0
M  END
