
     RDKit          3D

 15 16  0  0  0  0  0  0  0  0999 V2000
   19.6794   15.5160   48.5062 N   0  0  0  0  0  0  0  0  0  0  0  0
   19.9838   15.1114   47.2303 C   0  0  0  0  0  0  0  0  0  0  0  0
   19.2127   15.5049   46.1705 N   0  0  0  0  0  0  0  0  0  0  0  0
   18.1455   16.3034   46.4270 C   0  0  0  0  0  0  0  0  0  0  0  0
   17.8175   16.7198   47.6749 C   0  0  0  0  0  0  0  0  0  0  0  0
   18.6018   16.3212   48.7608 C   0  0  0  0  0  0  0  0  0  0  0  0
   18.3070   16.7264   50.0931 N   0  0  0  0  0  0  0  0  0  0  0  0
   16.7145   17.4985   47.6327 N   0  0  0  0  0  0  0  0  0  0  0  0
   16.4128   17.5183   46.3035 C   0  0  0  0  0  0  0  0  0  0  0  0
   17.2719   16.7952   45.5413 N   0  0  0  0  0  0  0  0  0  0  0  0
   20.8415   14.4752   47.0610 H   0  0  0  0  0  0  0  0  0  0  0  0
   18.3360   16.0418   50.8811 H   0  0  0  0  0  0  0  0  0  0  0  0
   18.0570   17.7194   50.2969 H   0  0  0  0  0  0  0  0  0  0  0  0
   15.5688   18.0590   45.8962 H   0  0  0  0  0  0  0  0  0  0  0  0
   17.2535   16.6562   44.5068 H   0  0  0  0  0  0  0  0  0  0  0  0
  2  1  2  0
  3  2  1  0
  4  3  2  0
  5  4  1  0
  6  1  1  0
  6  5  2  0
  7  6  1  0
  8  5  1  0
  9  8  2  0
 10  4  1  0
 10  9  1  0
  2 11  1  0
  7 12  1  0
  7 13  1  0
  9 14  1  0
 10 15  1  0
M  END
