
     RDKit          3D

 19 19  0  0  0  0  0  0  0  0999 V2000
   -4.7083    2.1447   16.0974 C   0  0  0  0  0  0  0  0  0  0  0  0
   -7.2875    1.2096   16.6409 N   0  0  0  0  0  0  0  0  0  0  0  0
   -5.2982   -0.4123   16.0393 O   0  0  0  0  0  0  0  0  0  0  0  0
   -5.6157    0.8523   16.7761 S   0  0  0  0  0  0  0  0  0  0  0  0
   -3.9174    4.0927   15.0436 C   0  0  0  0  0  0  0  0  0  0  0  0
   -2.9229    3.2598   15.4164 N   0  0  0  0  0  0  0  0  0  0  0  0
   -5.2372    0.7333   18.2221 O   0  0  0  0  0  0  0  0  0  0  0  0
   -5.4257    3.5291   15.4817 S   0  0  0  0  0  0  0  0  0  0  0  0
   -4.6374    6.3288   14.1249 C   0  0  0  0  0  0  0  0  0  0  0  0
   -3.3655    2.1555   16.0083 N   0  0  0  0  0  0  0  0  0  0  0  0
   -5.8509    6.2475   14.4864 O   0  0  0  0  0  0  0  0  0  0  0  0
   -4.1778    7.4847   13.3428 C   0  0  0  0  0  0  0  0  0  0  0  0
   -3.6529    5.3797   14.5215 N   0  0  0  0  0  0  0  0  0  0  0  0
   -7.4468    2.1199   17.1284 H   0  0  0  0  0  0  0  0  0  0  0  0
   -7.8007    0.4816   17.1868 H   0  0  0  0  0  0  0  0  0  0  0  0
   -3.9014    8.3176   14.0231 H   0  0  0  0  0  0  0  0  0  0  0  0
   -4.9891    7.8197   12.6632 H   0  0  0  0  0  0  0  0  0  0  0  0
   -3.2875    7.2148   12.7358 H   0  0  0  0  0  0  0  0  0  0  0  0
   -2.6533    5.5977   14.3054 H   0  0  0  0  0  0  0  0  0  0  0  0
  4  2  1  0
  4  3  2  0
  4  1  1  0
  6  5  2  0
  7  4  2  0
  8  5  1  0
  8  1  1  0
 10  6  1  0
 10  1  2  0
 11  9  2  0
 12  9  1  0
 13  9  1  0
 13  5  1  0
  2 14  1  0
  2 15  1  0
 12 16  1  0
 12 17  1  0
 12 18  1  0
 13 19  1  0
M  END
