
     RDKit          3D

 41 44  0  0  0  0  0  0  0  0999 V2000
   41.8493   -1.7846   32.7274 C   0  0  0  0  0  0  0  0  0  0  0  0
   41.8845   -0.5633   32.0687 O   0  0  0  0  0  0  0  0  0  0  0  0
   41.3454   -1.8477   34.0295 C   0  0  0  0  0  0  0  0  0  0  0  0
   41.2504   -3.0849   34.6776 C   0  0  0  0  0  0  0  0  0  0  0  0
   41.6629   -4.2485   34.0372 C   0  0  0  0  0  0  0  0  0  0  0  0
   42.1737   -4.1862   32.7483 C   0  0  0  0  0  0  0  0  0  0  0  0
   42.2785   -2.9528   32.0900 C   0  0  0  0  0  0  0  0  0  0  0  0
   44.1500   -3.6448   26.6032 C   0  0  0  0  0  0  0  0  0  0  0  0
   40.9111   -0.6307   34.7195 C   0  0  0  0  0  0  0  0  0  0  0  0
   44.3642   -3.7983   24.1067 N   0  0  0  0  0  0  0  0  0  0  0  0
   44.2378   -2.2228   26.6409 C   0  0  0  0  0  0  0  0  0  0  0  0
   40.3413   -0.7097   35.9981 C   0  0  0  0  0  0  0  0  0  0  0  0
   45.0494   -5.5815   25.4723 N   0  0  0  0  0  0  0  0  0  0  0  0
   43.8662   -1.5098   27.7804 C   0  0  0  0  0  0  0  0  0  0  0  0
   39.9092    0.4461   36.6455 C   0  0  0  0  0  0  0  0  0  0  0  0
   43.1019   -1.7941   30.0538 N   0  0  0  0  0  0  0  0  0  0  0  0
   43.4400   -2.2448   28.8624 C   0  0  0  0  0  0  0  0  0  0  0  0
   40.0388    1.6865   36.0199 C   0  0  0  0  0  0  0  0  0  0  0  0
   42.9381   -4.0621   30.0225 N   0  0  0  0  0  0  0  0  0  0  0  0
   43.3583   -3.5966   28.8495 C   0  0  0  0  0  0  0  0  0  0  0  0
   40.6056    1.7726   34.7468 C   0  0  0  0  0  0  0  0  0  0  0  0
   43.6932   -4.3407   27.7438 C   0  0  0  0  0  0  0  0  0  0  0  0
   41.0416    0.6179   34.0963 C   0  0  0  0  0  0  0  0  0  0  0  0
   44.5358   -4.3901   25.3935 C   0  0  0  0  0  0  0  0  0  0  0  0
   42.7804   -2.9232   30.7321 C   0  0  0  0  0  0  0  0  0  0  0  0
   40.8652   -3.1491   35.6882 H   0  0  0  0  0  0  0  0  0  0  0  0
   41.5887   -5.2015   34.5453 H   0  0  0  0  0  0  0  0  0  0  0  0
   42.4924   -5.1069   32.2753 H   0  0  0  0  0  0  0  0  0  0  0  0
   43.8931   -2.8766   23.9790 H   0  0  0  0  0  0  0  0  0  0  0  0
   44.5693   -4.3468   23.2419 H   0  0  0  0  0  0  0  0  0  0  0  0
   44.6388   -1.6472   25.8211 H   0  0  0  0  0  0  0  0  0  0  0  0
   40.2107   -1.6672   36.4875 H   0  0  0  0  0  0  0  0  0  0  0  0
   45.3051   -6.1014   24.6030 H   0  0  0  0  0  0  0  0  0  0  0  0
   45.2947   -6.0524   26.3679 H   0  0  0  0  0  0  0  0  0  0  0  0
   43.9458   -0.4309   27.8229 H   0  0  0  0  0  0  0  0  0  0  0  0
   39.4658    0.3810   37.6308 H   0  0  0  0  0  0  0  0  0  0  0  0
   43.2054   -0.8036   30.3559 H   0  0  0  0  0  0  0  0  0  0  0  0
   39.7003    2.5833   36.5225 H   0  0  0  0  0  0  0  0  0  0  0  0
   40.7072    2.7361   34.2643 H   0  0  0  0  0  0  0  0  0  0  0  0
   43.5693   -5.4140   27.7719 H   0  0  0  0  0  0  0  0  0  0  0  0
   41.4835    0.6998   33.1107 H   0  0  0  0  0  0  0  0  0  0  0  0
  2  1  1  0
  3  1  2  0
  4  3  1  0
  5  4  2  0
  6  5  1  0
  7  6  2  0
  7  1  1  0
  9  3  1  0
 11  8  2  0
 12  9  2  0
 14 11  1  0
 15 12  1  0
 17 16  1  0
 17 14  2  0
 18 15  2  0
 20 19  1  0
 20 17  1  0
 21 18  1  0
 22  8  1  0
 22 20  2  0
 23 21  2  0
 23  9  1  0
 24 13  2  0
 24 10  1  0
 24  8  1  0
 25 19  2  0
 25  7  1  0
 25 16  1  0
  4 26  1  0
  5 27  1  0
  6 28  1  0
 10 29  1  0
 10 30  1  0
 11 31  1  0
 12 32  1  0
 13 33  1  0
 13 34  1  0
 14 35  1  0
 15 36  1  0
 16 37  1  0
 18 38  1  0
 21 39  1  0
 22 40  1  0
 23 41  1  0
M  CHG  2   2  -1  13   1
M  END
