
     RDKit          3D

 41 44  0  0  0  0  0  0  0  0999 V2000
   43.4808   -1.5007   32.1678 C   0  0  0  0  0  0  0  0  0  0  0  0
   44.1196   -0.4216   31.5729 O   0  0  0  0  0  0  0  0  0  0  0  0
   43.0148   -1.3840   33.4803 C   0  0  0  0  0  0  0  0  0  0  0  0
   42.3161   -2.4464   34.0657 C   0  0  0  0  0  0  0  0  0  0  0  0
   42.0917   -3.6192   33.3526 C   0  0  0  0  0  0  0  0  0  0  0  0
   42.5633   -3.7409   32.0530 C   0  0  0  0  0  0  0  0  0  0  0  0
   43.2685   -2.6859   31.4569 C   0  0  0  0  0  0  0  0  0  0  0  0
   44.4790   -2.7139   25.7455 C   0  0  0  0  0  0  0  0  0  0  0  0
   43.2470   -0.1571   34.2463 C   0  0  0  0  0  0  0  0  0  0  0  0
   45.3315   -2.6135   23.3865 N   0  0  0  0  0  0  0  0  0  0  0  0
   45.5787   -3.5191   26.1622 C   0  0  0  0  0  0  0  0  0  0  0  0
   43.2853    1.0843   33.5956 C   0  0  0  0  0  0  0  0  0  0  0  0
   43.1418   -1.9317   23.8911 N   0  0  0  0  0  0  0  0  0  0  0  0
   45.7812   -3.8173   27.5094 C   0  0  0  0  0  0  0  0  0  0  0  0
   43.5269    2.2489   34.3215 C   0  0  0  0  0  0  0  0  0  0  0  0
   44.8137   -3.5242   29.7029 N   0  0  0  0  0  0  0  0  0  0  0  0
   44.8593   -3.3205   28.4017 C   0  0  0  0  0  0  0  0  0  0  0  0
   43.7359    2.1818   35.6994 C   0  0  0  0  0  0  0  0  0  0  0  0
   43.0557   -2.2265   29.0728 N   0  0  0  0  0  0  0  0  0  0  0  0
   43.8030   -2.5616   28.0246 C   0  0  0  0  0  0  0  0  0  0  0  0
   43.6987    0.9490   36.3539 C   0  0  0  0  0  0  0  0  0  0  0  0
   43.5738   -2.2242   26.7123 C   0  0  0  0  0  0  0  0  0  0  0  0
   43.4548   -0.2190   35.6309 C   0  0  0  0  0  0  0  0  0  0  0  0
   44.2766   -2.3961   24.3222 C   0  0  0  0  0  0  0  0  0  0  0  0
   43.7158   -2.8273   30.0871 C   0  0  0  0  0  0  0  0  0  0  0  0
   41.9520   -2.3719   35.0833 H   0  0  0  0  0  0  0  0  0  0  0  0
   41.5527   -4.4376   33.8124 H   0  0  0  0  0  0  0  0  0  0  0  0
   42.3791   -4.6671   31.5227 H   0  0  0  0  0  0  0  0  0  0  0  0
   46.2523   -2.1307   23.4673 H   0  0  0  0  0  0  0  0  0  0  0  0
   45.1542   -3.1466   22.5059 H   0  0  0  0  0  0  0  0  0  0  0  0
   46.2628   -3.9701   25.4602 H   0  0  0  0  0  0  0  0  0  0  0  0
   43.1498    1.1513   32.5230 H   0  0  0  0  0  0  0  0  0  0  0  0
   43.0200   -1.6990   22.8800 H   0  0  0  0  0  0  0  0  0  0  0  0
   42.2915   -1.8286   24.4831 H   0  0  0  0  0  0  0  0  0  0  0  0
   46.6044   -4.4419   27.8325 H   0  0  0  0  0  0  0  0  0  0  0  0
   43.5601    3.2051   33.8154 H   0  0  0  0  0  0  0  0  0  0  0  0
   45.4392   -4.1797   30.2150 H   0  0  0  0  0  0  0  0  0  0  0  0
   43.9263    3.0867   36.2619 H   0  0  0  0  0  0  0  0  0  0  0  0
   43.8589    0.8996   37.4232 H   0  0  0  0  0  0  0  0  0  0  0  0
   42.7400   -1.5806   26.4701 H   0  0  0  0  0  0  0  0  0  0  0  0
   43.4243   -1.1681   36.1522 H   0  0  0  0  0  0  0  0  0  0  0  0
  2  1  1  0
  3  1  2  0
  4  3  1  0
  5  4  2  0
  6  5  1  0
  7  6  2  0
  7  1  1  0
  9  3  1  0
 11  8  2  0
 12  9  2  0
 14 11  1  0
 15 12  1  0
 17 16  1  0
 17 14  2  0
 18 15  2  0
 20 19  1  0
 20 17  1  0
 21 18  1  0
 22  8  1  0
 22 20  2  0
 23 21  2  0
 23  9  1  0
 24 13  2  0
 24 10  1  0
 24  8  1  0
 25 19  2  0
 25  7  1  0
 25 16  1  0
  4 26  1  0
  5 27  1  0
  6 28  1  0
 10 29  1  0
 10 30  1  0
 11 31  1  0
 12 32  1  0
 13 33  1  0
 13 34  1  0
 14 35  1  0
 15 36  1  0
 16 37  1  0
 18 38  1  0
 21 39  1  0
 22 40  1  0
 23 41  1  0
M  CHG  2   2  -1  13   1
M  END
