
     RDKit          3D

 12 12  0  0  0  0  0  0  0  0999 V2000
   27.7177    7.6727    4.3706 C   0  0  0  0  0  0  0  0  0  0  0  0
   27.0804    8.2868    5.4535 C   0  0  0  0  0  0  0  0  0  0  0  0
   26.0749    7.5982    6.1593 C   0  0  0  0  0  0  0  0  0  0  0  0
   25.7128    6.2932    5.7683 C   0  0  0  0  0  0  0  0  0  0  0  0
   26.3559    5.6891    4.6821 C   0  0  0  0  0  0  0  0  0  0  0  0
   27.3532    6.3770    3.9867 C   0  0  0  0  0  0  0  0  0  0  0  0
   27.4403    9.5457    5.8147 F   0  0  0  0  0  0  0  0  0  0  0  0
   25.4589    8.1930    7.2143 F   0  0  0  0  0  0  0  0  0  0  0  0
   24.7432    5.6135    6.4337 F   0  0  0  0  0  0  0  0  0  0  0  0
   26.0168    4.4335    4.2982 F   0  0  0  0  0  0  0  0  0  0  0  0
   27.9660    5.7799    2.9368 F   0  0  0  0  0  0  0  0  0  0  0  0
   29.2281    8.7089    3.3210 I   0  0  0  0  0  0  0  0  0  0  0  0
  2  1  2  0
  3  2  1  0
  4  3  2  0
  5  4  1  0
  6  5  2  0
  6  1  1  0
  7  2  1  0
  8  3  1  0
  9  4  1  0
 10  5  1  0
 11  6  1  0
 12  1  1  0
M  END
