
     RDKit          3D

 12 12  0  0  0  0  0  0  0  0999 V2000
   27.5402    6.7372    3.5000 C   0  0  0  0  0  0  0  0  0  0  0  0
   26.9345    7.3385    4.6058 C   0  0  0  0  0  0  0  0  0  0  0  0
   25.9336    6.6498    5.3206 C   0  0  0  0  0  0  0  0  0  0  0  0
   25.5473    5.3563    4.9145 C   0  0  0  0  0  0  0  0  0  0  0  0
   26.1608    4.7664    3.8050 C   0  0  0  0  0  0  0  0  0  0  0  0
   27.1526    5.4556    3.1020 C   0  0  0  0  0  0  0  0  0  0  0  0
   27.3219    8.5855    4.9762 F   0  0  0  0  0  0  0  0  0  0  0  0
   25.3457    7.2317    6.3981 F   0  0  0  0  0  0  0  0  0  0  0  0
   24.5835    4.6735    5.5862 F   0  0  0  0  0  0  0  0  0  0  0  0
   25.7973    3.5232    3.4067 F   0  0  0  0  0  0  0  0  0  0  0  0
   27.7407    4.8773    2.0291 F   0  0  0  0  0  0  0  0  0  0  0  0
   29.0419    7.7662    2.4316 I   0  0  0  0  0  0  0  0  0  0  0  0
  2  1  2  0
  3  2  1  0
  4  3  2  0
  5  4  1  0
  6  5  2  0
  6  1  1  0
  7  2  1  0
  8  3  1  0
  9  4  1  0
 10  5  1  0
 11  6  1  0
 12  1  1  0
M  END
