
     RDKit          3D

 43 45  0  0  0  0  0  0  0  0999 V2000
   95.1079   77.4080  -46.7172 C   0  0  0  0  0  0  0  0  0  0  0  0
   91.3742   82.3960  -50.6442 N   0  0  0  0  0  0  0  0  0  0  0  0
   87.3226   82.3633  -43.2278 O   0  0  0  0  0  0  0  0  0  0  0  0
   92.3780   81.3425  -48.5912 S   0  0  0  0  0  0  0  0  0  0  0  0
   95.9527   78.2623  -47.4625 C   0  0  0  0  0  0  0  0  0  0  0  0
   92.1598   81.0465  -52.4659 N   0  0  0  0  0  0  0  0  0  0  0  0
   86.7849   84.7732  -43.5488 O   0  0  0  0  0  0  0  0  0  0  0  0
   87.8844   83.7410  -43.4661 S   0  0  0  0  0  0  0  0  0  0  0  0
   95.4475   78.8996  -48.6116 C   0  0  0  0  0  0  0  0  0  0  0  0
   90.7490   83.6033  -48.6751 N   0  0  0  0  0  0  0  0  0  0  0  0
   93.8467   78.9501  -51.3642 O   0  0  0  0  0  0  0  0  0  0  0  0
   93.2837   77.8479  -48.2583 C   0  0  0  0  0  0  0  0  0  0  0  0
   88.9687   84.1622  -42.2038 N   0  0  0  0  0  0  0  0  0  0  0  0
   93.7803   77.2037  -47.1178 C   0  0  0  0  0  0  0  0  0  0  0  0
   97.2873   78.5029  -47.0979 O   0  0  0  0  0  0  0  0  0  0  0  0
   98.0939   77.5887  -46.3696 C   0  0  0  0  0  0  0  0  0  0  0  0
   94.1108   78.7034  -49.0150 C   0  0  0  0  0  0  0  0  0  0  0  0
   93.5722   79.3956  -50.2139 C   0  0  0  0  0  0  0  0  0  0  0  0
   92.7220   80.5971  -50.0651 C   0  0  0  0  0  0  0  0  0  0  0  0
   92.0912   81.3365  -51.0744 C   0  0  0  0  0  0  0  0  0  0  0  0
   91.4060   82.5169  -49.3094 C   0  0  0  0  0  0  0  0  0  0  0  0
   90.1295   83.6325  -47.3865 C   0  0  0  0  0  0  0  0  0  0  0  0
   90.7860   83.2658  -46.1863 C   0  0  0  0  0  0  0  0  0  0  0  0
   90.1065   83.3278  -44.9723 C   0  0  0  0  0  0  0  0  0  0  0  0
   88.7638   83.7235  -44.9513 C   0  0  0  0  0  0  0  0  0  0  0  0
   88.1002   84.0567  -46.1336 C   0  0  0  0  0  0  0  0  0  0  0  0
   88.7806   84.0168  -47.3408 C   0  0  0  0  0  0  0  0  0  0  0  0
   95.4656   76.9014  -45.8314 H   0  0  0  0  0  0  0  0  0  0  0  0
   91.6967   81.6920  -53.1436 H   0  0  0  0  0  0  0  0  0  0  0  0
   92.5954   80.1879  -52.8585 H   0  0  0  0  0  0  0  0  0  0  0  0
   96.0925   79.5564  -49.1827 H   0  0  0  0  0  0  0  0  0  0  0  0
   90.6182   84.4447  -49.2828 H   0  0  0  0  0  0  0  0  0  0  0  0
   92.2572   77.6748  -48.5573 H   0  0  0  0  0  0  0  0  0  0  0  0
   89.9156   84.2578  -42.6344 H   0  0  0  0  0  0  0  0  0  0  0  0
   88.7006   85.1145  -41.8685 H   0  0  0  0  0  0  0  0  0  0  0  0
   93.1374   76.5480  -46.5448 H   0  0  0  0  0  0  0  0  0  0  0  0
   98.2039   76.6403  -46.9367 H   0  0  0  0  0  0  0  0  0  0  0  0
   99.0998   78.0319  -46.2207 H   0  0  0  0  0  0  0  0  0  0  0  0
   97.6426   77.3897  -45.3745 H   0  0  0  0  0  0  0  0  0  0  0  0
   91.7864   82.8825  -46.1582 H   0  0  0  0  0  0  0  0  0  0  0  0
   90.6144   83.0311  -44.0641 H   0  0  0  0  0  0  0  0  0  0  0  0
   87.0561   84.3435  -46.1239 H   0  0  0  0  0  0  0  0  0  0  0  0
   88.2511   84.2851  -48.2469 H   0  0  0  0  0  0  0  0  0  0  0  0
  5  1  2  0
  8  3  2  0
  8  7  2  0
  9  5  1  0
  8 13  1  0
 14 12  2  0
 14  1  1  0
 15  5  1  0
 16 15  1  0
 17 12  1  0
 17  9  2  0
 18 11  2  0
 18 17  1  0
 19 18  1  0
 19  4  1  0
 20  2  1  0
 20 19  2  0
 20  6  1  0
 21  2  2  0
 21 10  1  0
 21  4  1  0
 22 10  1  0
 23 22  2  0
 24 23  1  0
 25 24  2  0
 25  8  1  0
 26 25  1  0
 27 26  2  0
 27 22  1  0
  1 28  1  0
  6 29  1  0
  6 30  1  0
  9 31  1  0
 10 32  1  0
 12 33  1  0
 13 34  1  0
 13 35  1  0
 14 36  1  0
 16 37  1  0
 16 38  1  0
 16 39  1  0
 23 40  1  0
 24 41  1  0
 26 42  1  0
 27 43  1  0
M  END
