
     RDKit          3D

 35 36  0  0  0  0  0  0  0  0999 V2000
   25.0395  -16.2782    8.5977 P   0  0  0  0  0  0  0  0  0  0  0  0
   25.5142  -17.8261   10.5829 C   0  0  0  0  0  0  0  0  0  0  0  0
   24.4796  -17.3276    9.7905 O   0  0  0  0  0  0  0  0  0  0  0  0
   24.8184  -18.5945   11.7118 C   0  0  1  0  0  0  0  0  0  0  0  0
   25.7663  -19.3233   12.4534 O   0  0  0  0  0  0  0  0  0  0  0  0
   24.0549  -17.6609   12.6620 C   0  0  1  0  0  0  0  0  0  0  0  0
   22.8830  -18.2895   13.1434 O   0  0  0  0  0  0  0  0  0  0  0  0
   25.0604  -17.4462   13.7648 C   0  0  1  0  0  0  0  0  0  0  0  0
   24.4258  -17.1682   14.9838 O   0  0  0  0  0  0  0  0  0  0  0  0
   25.7709  -18.8073   13.7631 C   0  0  2  0  0  0  0  0  0  0  0  0
   27.1604  -18.7731   14.2715 N   0  0  0  0  0  0  0  0  0  0  0  0
   27.5955  -16.7068   13.0990 O   0  0  0  0  0  0  0  0  0  0  0  0
   27.5953  -19.7028   15.1849 C   0  0  0  0  0  0  0  0  0  0  0  0
   26.8395  -20.6291   15.5726 O   0  0  0  0  0  0  0  0  0  0  0  0
   28.8502  -19.6342   15.6995 N   0  0  0  0  0  0  0  0  0  0  0  0
   29.6941  -18.6292   15.3697 C   0  0  0  0  0  0  0  0  0  0  0  0
   30.8550  -18.5967   15.8601 O   0  0  0  0  0  0  0  0  0  0  0  0
   29.2655  -17.6303   14.5092 C   0  0  0  0  0  0  0  0  0  0  0  0
   27.9866  -17.7194   13.9619 C   0  0  0  0  0  0  0  0  0  0  0  0
   26.1518  -15.3743    9.0796 O   0  0  0  0  0  0  0  0  0  0  0  0
   23.6972  -15.3665    8.1822 O   0  0  0  0  0  0  0  0  0  0  0  0
   25.5295  -17.1729    7.2657 O   0  0  0  0  0  0  0  0  0  0  0  0
   26.1560  -18.5241   10.0001 H   0  0  0  0  0  0  0  0  0  0  0  0
   26.1179  -16.9919   10.9934 H   0  0  0  0  0  0  0  0  0  0  0  0
   24.1130  -19.3202   11.2469 H   0  0  0  0  0  0  0  0  0  0  0  0
   23.7730  -16.6939   12.1899 H   0  0  0  0  0  0  0  0  0  0  0  0
   22.8619  -19.2340   12.8405 H   0  0  0  0  0  0  0  0  0  0  0  0
   25.7149  -16.5933   13.4915 H   0  0  0  0  0  0  0  0  0  0  0  0
   23.7873  -16.4303   14.8015 H   0  0  0  0  0  0  0  0  0  0  0  0
   25.1362  -19.4923   14.3478 H   0  0  0  0  0  0  0  0  0  0  0  0
   27.1989  -16.8676   12.1829 H   0  0  0  0  0  0  0  0  0  0  0  0
   29.1687  -20.3672   16.3747 H   0  0  0  0  0  0  0  0  0  0  0  0
   29.9187  -16.8049   14.2521 H   0  0  0  0  0  0  0  0  0  0  0  0
   23.7295  -14.5797    8.7830 H   0  0  0  0  0  0  0  0  0  0  0  0
   24.6891  -17.4792    6.8406 H   0  0  0  0  0  0  0  0  0  0  0  0
  3  2  1  0
  3  1  1  0
  4  2  1  0
  5  4  1  0
  6  4  1  0
  6  7  1  0
  8  6  1  0
  8  9  1  0
 10  8  1  0
 10  5  1  0
 10 11  1  0
 13 11  1  0
 14 13  2  0
 15 13  1  0
 16 15  1  0
 17 16  2  0
 18 16  1  0
 19 12  1  0
 19 11  1  0
 19 18  2  0
 20  1  2  0
 21  1  1  0
 22  1  1  0
  2 23  1  0
  2 24  1  0
  4 25  1  6
  6 26  1  6
  7 27  1  0
  8 28  1  6
  9 29  1  0
 10 30  1  1
 12 31  1  0
 15 32  1  0
 18 33  1  0
 21 34  1  0
 22 35  1  0
M  END
