
     RDKit          3D

 35 36  0  0  0  0  0  0  0  0999 V2000
   24.3681  -15.4423   10.5065 P   0  0  0  0  0  0  0  0  0  0  0  0
   25.0294  -17.7126   11.4917 C   0  0  0  0  0  0  0  0  0  0  0  0
   23.9801  -17.0425   10.8619 O   0  0  0  0  0  0  0  0  0  0  0  0
   24.3813  -18.4579   12.6637 C   0  0  1  0  0  0  0  0  0  0  0  0
   25.3092  -19.3422   13.2439 O   0  0  0  0  0  0  0  0  0  0  0  0
   23.8660  -17.4980   13.7457 C   0  0  1  0  0  0  0  0  0  0  0  0
   22.6893  -18.0061   14.3434 O   0  0  0  0  0  0  0  0  0  0  0  0
   25.0168  -17.4773   14.7196 C   0  0  1  0  0  0  0  0  0  0  0  0
   24.5757  -17.1993   16.0213 O   0  0  0  0  0  0  0  0  0  0  0  0
   25.5391  -18.9128   14.5646 C   0  0  2  0  0  0  0  0  0  0  0  0
   26.9725  -19.0814   14.8923 N   0  0  0  0  0  0  0  0  0  0  0  0
   26.4621  -20.8490   16.4571 O   0  0  0  0  0  0  0  0  0  0  0  0
   27.9350  -18.3813   14.2059 C   0  0  0  0  0  0  0  0  0  0  0  0
   27.6183  -17.5491   13.3189 O   0  0  0  0  0  0  0  0  0  0  0  0
   29.2534  -18.5824   14.4626 N   0  0  0  0  0  0  0  0  0  0  0  0
   29.6642  -19.5056   15.3625 C   0  0  0  0  0  0  0  0  0  0  0  0
   30.8952  -19.6646   15.5826 O   0  0  0  0  0  0  0  0  0  0  0  0
   28.7253  -20.2849   16.0206 C   0  0  0  0  0  0  0  0  0  0  0  0
   27.3724  -20.0563   15.7746 C   0  0  0  0  0  0  0  0  0  0  0  0
   25.1721  -14.7722   11.5978 O   0  0  0  0  0  0  0  0  0  0  0  0
   22.8850  -14.6825   10.3363 O   0  0  0  0  0  0  0  0  0  0  0  0
   25.1844  -15.3878    9.0418 O   0  0  0  0  0  0  0  0  0  0  0  0
   25.4998  -18.4468   10.8002 H   0  0  0  0  0  0  0  0  0  0  0  0
   25.7814  -16.9861   11.8597 H   0  0  0  0  0  0  0  0  0  0  0  0
   23.5366  -19.0611   12.2599 H   0  0  0  0  0  0  0  0  0  0  0  0
   23.6571  -16.4764   13.3585 H   0  0  0  0  0  0  0  0  0  0  0  0
   21.9390  -17.9607   13.6959 H   0  0  0  0  0  0  0  0  0  0  0  0
   25.7386  -16.6962   14.4045 H   0  0  0  0  0  0  0  0  0  0  0  0
   25.2096  -17.6578   16.6322 H   0  0  0  0  0  0  0  0  0  0  0  0
   24.8962  -19.5493   15.1934 H   0  0  0  0  0  0  0  0  0  0  0  0
   25.6058  -20.5006   16.8667 H   0  0  0  0  0  0  0  0  0  0  0  0
   29.9683  -18.0202   13.9456 H   0  0  0  0  0  0  0  0  0  0  0  0
   29.0361  -21.0455   16.7270 H   0  0  0  0  0  0  0  0  0  0  0  0
   22.4514  -15.1413    9.5730 H   0  0  0  0  0  0  0  0  0  0  0  0
   25.9030  -14.7195    9.1745 H   0  0  0  0  0  0  0  0  0  0  0  0
  3  2  1  0
  3  1  1  0
  4  2  1  0
  5  4  1  0
  6  4  1  0
  6  7  1  0
  8  6  1  0
  8  9  1  0
 10  8  1  0
 10  5  1  0
 10 11  1  0
 13 11  1  0
 14 13  2  0
 15 13  1  0
 16 15  1  0
 17 16  2  0
 18 16  1  0
 19 12  1  0
 19 11  1  0
 19 18  2  0
 20  1  2  0
 21  1  1  0
 22  1  1  0
  2 23  1  0
  2 24  1  0
  4 25  1  6
  6 26  1  6
  7 27  1  0
  8 28  1  6
  9 29  1  0
 10 30  1  1
 12 31  1  0
 15 32  1  0
 18 33  1  0
 21 34  1  0
 22 35  1  0
M  END
