
     RDKit          3D

 23 23  0  0  0  0  0  0  0  0999 V2000
   14.2524   44.4157   20.6495 C   0  0  0  0  0  0  0  0  0  0  0  0
   10.8350   39.5704   24.1051 P   0  0  0  0  0  0  0  0  0  0  0  0
    9.5459   40.2550   23.7137 O   0  0  0  0  0  0  0  0  0  0  0  0
   10.9839   42.1937   20.2529 S   0  0  0  0  0  0  0  0  0  0  0  0
   11.1442   43.3355   19.0312 C   0  0  0  0  0  0  0  0  0  0  0  0
   10.8180   39.1690   25.7308 O   0  0  0  0  0  0  0  0  0  0  0  0
   12.2654   44.0743   19.1850 N   0  0  0  0  0  0  0  0  0  0  0  0
   11.0823   38.1738   23.2039 O   0  0  0  0  0  0  0  0  0  0  0  0
   12.9852   43.7074   20.2746 C   0  0  0  0  0  0  0  0  0  0  0  0
   12.4166   42.6661   21.0033 C   0  0  0  0  0  0  0  0  0  0  0  0
   12.8995   42.1299   22.3046 C   0  0  0  0  0  0  0  0  0  0  0  0
   12.5343   40.6760   22.5384 C   0  0  0  0  0  0  0  0  0  0  0  0
   12.1432   40.6077   23.8878 O   0  0  0  0  0  0  0  0  0  0  0  0
   14.9576   43.7042   21.1282 H   0  0  0  0  0  0  0  0  0  0  0  0
   14.0233   45.2410   21.3553 H   0  0  0  0  0  0  0  0  0  0  0  0
   14.7375   44.8401   19.7453 H   0  0  0  0  0  0  0  0  0  0  0  0
   10.4439   43.4792   18.2199 H   0  0  0  0  0  0  0  0  0  0  0  0
   11.4957   39.7612   26.1444 H   0  0  0  0  0  0  0  0  0  0  0  0
   10.1781   37.9057   22.9014 H   0  0  0  0  0  0  0  0  0  0  0  0
   12.4646   42.7444   23.1228 H   0  0  0  0  0  0  0  0  0  0  0  0
   14.0029   42.2506   22.3679 H   0  0  0  0  0  0  0  0  0  0  0  0
   13.4297   40.0344   22.3919 H   0  0  0  0  0  0  0  0  0  0  0  0
   11.7550   40.3741   21.7995 H   0  0  0  0  0  0  0  0  0  0  0  0
  3  2  2  0
  5  4  1  0
  6  2  1  0
  7  5  2  0
  8  2  1  0
  9  7  1  0
  9  1  1  0
 10  4  1  0
 10  9  2  0
 11 10  1  0
 12 11  1  0
 13  2  1  0
 13 12  1  0
  1 14  1  0
  1 15  1  0
  1 16  1  0
  5 17  1  0
  6 18  1  0
  8 19  1  0
 11 20  1  0
 11 21  1  0
 12 22  1  0
 12 23  1  0
M  END
