
     RDKit          3D

 24 25  0  0  0  0  0  0  0  0999 V2000
   31.1201   -2.5286   33.6211 Cl  0  0  0  0  0  0  0  0  0  0  0  0
   38.9328    1.8190   28.7868 Cl  0  0  0  0  0  0  0  0  0  0  0  0
   35.6897   -0.7960   32.2968 Cl  0  0  0  0  0  0  0  0  0  0  0  0
   32.5990   -2.4931   31.3337 C   0  0  0  0  0  0  0  0  0  0  0  0
   32.6030   -2.7175   32.7129 C   0  0  0  0  0  0  0  0  0  0  0  0
   33.7836   -3.0942   33.3643 C   0  0  0  0  0  0  0  0  0  0  0  0
   34.9597   -3.2522   32.6313 C   0  0  0  0  0  0  0  0  0  0  0  0
   34.9509   -3.0307   31.2495 C   0  0  0  0  0  0  0  0  0  0  0  0
   33.7728   -2.6461   30.5986 C   0  0  0  0  0  0  0  0  0  0  0  0
   36.1314   -3.1236   30.5297 O   0  0  0  0  0  0  0  0  0  0  0  0
   36.8192   -1.9844   30.1103 C   0  0  0  0  0  0  0  0  0  0  0  0
   36.6876   -0.8117   30.8566 C   0  0  0  0  0  0  0  0  0  0  0  0
   37.3393    0.3539   30.4520 C   0  0  0  0  0  0  0  0  0  0  0  0
   38.1319    0.3491   29.3010 C   0  0  0  0  0  0  0  0  0  0  0  0
   38.2821   -0.8236   28.5572 C   0  0  0  0  0  0  0  0  0  0  0  0
   37.6324   -1.9886   28.9579 C   0  0  0  0  0  0  0  0  0  0  0  0
   33.7590   -2.3988   29.2281 O   0  0  0  0  0  0  0  0  0  0  0  0
   31.6849   -2.1968   30.8344 H   0  0  0  0  0  0  0  0  0  0  0  0
   33.7880   -3.2640   34.4335 H   0  0  0  0  0  0  0  0  0  0  0  0
   35.8770   -3.5332   33.1331 H   0  0  0  0  0  0  0  0  0  0  0  0
   37.2277    1.2640   31.0280 H   0  0  0  0  0  0  0  0  0  0  0  0
   38.8990   -0.8301   27.6674 H   0  0  0  0  0  0  0  0  0  0  0  0
   37.7658   -2.8816   28.3623 H   0  0  0  0  0  0  0  0  0  0  0  0
   33.6090   -1.4724   28.8467 H   0  0  0  0  0  0  0  0  0  0  0  0
  5  4  2  0
  5  1  1  0
  6  5  1  0
  7  6  2  0
  8  7  1  0
  9  4  1  0
  9  8  2  0
 10  8  1  0
 11 10  1  0
 12 11  2  0
 12  3  1  0
 13 12  1  0
 14 13  2  0
 14  2  1  0
 15 14  1  0
 16 15  2  0
 16 11  1  0
 17  9  1  0
  4 18  1  0
  6 19  1  0
  7 20  1  0
 13 21  1  0
 15 22  1  0
 16 23  1  0
 17 24  1  0
M  END
