
     RDKit          3D

 24 25  0  0  0  0  0  0  0  0999 V2000
    7.0919  -15.3589    9.7020 Cl  0  0  0  0  0  0  0  0  0  0  0  0
   -2.3698  -16.2251   13.7409 Cl  0  0  0  0  0  0  0  0  0  0  0  0
    2.0144  -18.6033   15.9318 Cl  0  0  0  0  0  0  0  0  0  0  0  0
    5.7064  -15.6403   12.0305 C   0  0  0  0  0  0  0  0  0  0  0  0
    5.9668  -16.1732   10.7652 C   0  0  0  0  0  0  0  0  0  0  0  0
    5.3355  -17.3522   10.3511 C   0  0  0  0  0  0  0  0  0  0  0  0
    4.4469  -18.0007   11.2087 C   0  0  0  0  0  0  0  0  0  0  0  0
    4.1920  -17.4664   12.4769 C   0  0  0  0  0  0  0  0  0  0  0  0
    4.8166  -16.2833   12.8886 C   0  0  0  0  0  0  0  0  0  0  0  0
    3.2614  -18.0732   13.3053 O   0  0  0  0  0  0  0  0  0  0  0  0
    1.9484  -17.6082   13.3875 C   0  0  0  0  0  0  0  0  0  0  0  0
    1.2432  -17.8043   14.5764 C   0  0  0  0  0  0  0  0  0  0  0  0
   -0.0805  -17.3767   14.6854 C   0  0  0  0  0  0  0  0  0  0  0  0
   -0.7027  -16.7439   13.6058 C   0  0  0  0  0  0  0  0  0  0  0  0
    0.0001  -16.5292   12.4181 C   0  0  0  0  0  0  0  0  0  0  0  0
    1.3212  -16.9557   12.3057 C   0  0  0  0  0  0  0  0  0  0  0  0
    4.5509  -15.7299   14.1387 O   0  0  0  0  0  0  0  0  0  0  0  0
    6.1928  -14.7253   12.3450 H   0  0  0  0  0  0  0  0  0  0  0  0
    5.5337  -17.7629    9.3694 H   0  0  0  0  0  0  0  0  0  0  0  0
    3.9488  -18.9069   10.8881 H   0  0  0  0  0  0  0  0  0  0  0  0
   -0.6274  -17.5385   15.6059 H   0  0  0  0  0  0  0  0  0  0  0  0
   -0.4790  -16.0355   11.5821 H   0  0  0  0  0  0  0  0  0  0  0  0
    1.8408  -16.7774   11.3739 H   0  0  0  0  0  0  0  0  0  0  0  0
    4.6482  -16.2594   14.9968 H   0  0  0  0  0  0  0  0  0  0  0  0
  5  4  2  0
  5  1  1  0
  6  5  1  0
  7  6  2  0
  8  7  1  0
  9  8  2  0
  9  4  1  0
 10  8  1  0
 11 10  1  0
 12 11  2  0
 12  3  1  0
 13 12  1  0
 14 13  2  0
 14  2  1  0
 15 14  1  0
 16 11  1  0
 16 15  2  0
 17  9  1  0
  4 18  1  0
  6 19  1  0
  7 20  1  0
 13 21  1  0
 15 22  1  0
 16 23  1  0
 17 24  1  0
M  END
