
     RDKit          3D

 19 19  0  0  0  0  0  0  0  0999 V2000
   21.3852   11.5921   19.3453 C   0  0  0  0  0  0  0  0  0  0  0  0
   20.6501   10.9704   20.3454 C   0  0  0  0  0  0  0  0  0  0  0  0
   20.2812    9.6318   20.2101 C   0  0  0  0  0  0  0  0  0  0  0  0
   19.5282    9.0157   21.1975 O   0  0  0  0  0  0  0  0  0  0  0  0
   20.6652    8.9079   19.0790 C   0  0  0  0  0  0  0  0  0  0  0  0
   21.4047    9.5277   18.0701 C   0  0  0  0  0  0  0  0  0  0  0  0
   21.7650   10.8858   18.1970 C   0  0  0  0  0  0  0  0  0  0  0  0
   22.9198   11.1354   16.0139 C   0  0  0  0  0  0  0  0  0  0  0  0
   23.5566   11.9727   15.0628 N   0  0  0  0  0  0  0  0  0  0  0  0
   24.1134   11.4524   13.9179 O   0  0  0  0  0  0  0  0  0  0  0  0
   22.5001   11.6404   17.1703 C   0  0  0  0  0  0  0  0  0  0  0  0
   23.6503   13.1913   15.2912 O   0  0  0  0  0  0  0  0  0  0  0  0
   21.6476   12.6363   19.4692 H   0  0  0  0  0  0  0  0  0  0  0  0
   20.3573   11.5328   21.2231 H   0  0  0  0  0  0  0  0  0  0  0  0
   19.6168    8.0255   21.3947 H   0  0  0  0  0  0  0  0  0  0  0  0
   20.3836    7.8672   18.9791 H   0  0  0  0  0  0  0  0  0  0  0  0
   21.6831    8.9367   17.2109 H   0  0  0  0  0  0  0  0  0  0  0  0
   22.7677   10.0968   15.7600 H   0  0  0  0  0  0  0  0  0  0  0  0
   22.6798   12.6900   17.3716 H   0  0  0  0  0  0  0  0  0  0  0  0
  2  1  2  0
  3  2  1  0
  4  3  1  0
  5  3  2  0
  6  5  1  0
  7  6  2  0
  7  1  1  0
  9  8  1  0
 10  9  1  0
 11  7  1  0
 11  8  2  3
 12  9  2  0
  1 13  1  0
  2 14  1  0
  4 15  1  0
  5 16  1  0
  6 17  1  0
  8 18  1  0
 11 19  1  0
M  CHG  2   9   1  10  -1
M  END
