
     RDKit          3D

 42 44  0  0  0  0  0  0  0  0999 V2000
   15.8616    1.3385   53.0592 P   0  0  0  0  0  0  0  0  0  0  0  0
   15.0733    3.4641   46.4679 P   0  0  0  0  0  0  0  0  0  0  0  0
   16.4993    2.6950   53.2379 O   0  0  0  0  0  0  0  0  0  0  0  0
   14.3726    1.3127   53.8253 O   0  0  0  0  0  0  0  0  0  0  0  0
   16.8143    0.1428   53.7444 O   0  0  0  0  0  0  0  0  0  0  0  0
   14.2755    3.0432   45.2595 O   0  0  0  0  0  0  0  0  0  0  0  0
   16.5731    4.0367   45.9794 O   0  0  0  0  0  0  0  0  0  0  0  0
   14.2500    4.6700   47.2907 O   0  0  0  0  0  0  0  0  0  0  0  0
   15.9288    2.3766   48.6248 C   0  0  0  0  0  0  0  0  0  0  0  0
   15.2516    2.0943   47.4293 O   0  0  0  0  0  0  0  0  0  0  0  0
   16.2794    1.0138   49.2147 C   0  0  1  0  0  0  0  0  0  0  0  0
   17.2967    0.4022   48.4725 O   0  0  0  0  0  0  0  0  0  0  0  0
   16.7293    1.0050   50.6623 C   0  0  1  0  0  0  0  0  0  0  0  0
   15.5596    0.9914   51.4363 O   0  0  0  0  0  0  0  0  0  0  0  0
   17.5136   -0.3078   50.7280 C   0  0  1  0  0  0  0  0  0  0  0  0
   16.7947   -1.3007   51.4098 O   0  0  0  0  0  0  0  0  0  0  0  0
   17.6514   -0.7085   49.2534 C   0  0  2  0  0  0  0  0  0  0  0  0
   22.8365   -0.1740   49.4721 N   0  0  0  0  0  0  0  0  0  0  0  0
   21.8882    0.5950   50.0910 C   0  0  0  0  0  0  0  0  0  0  0  0
   20.5587    0.3196   49.9297 N   0  0  0  0  0  0  0  0  0  0  0  0
   20.2086   -0.7348   49.1507 C   0  0  0  0  0  0  0  0  0  0  0  0
   21.1297   -1.5045   48.5272 C   0  0  0  0  0  0  0  0  0  0  0  0
   22.4864   -1.2299   48.6820 C   0  0  0  0  0  0  0  0  0  0  0  0
   23.4912   -2.0124   48.0435 N   0  0  0  0  0  0  0  0  0  0  0  0
   20.5270   -2.4745   47.8134 N   0  0  0  0  0  0  0  0  0  0  0  0
   19.2068   -2.2530   48.0461 C   0  0  0  0  0  0  0  0  0  0  0  0
   18.9771   -1.2038   48.8775 N   0  0  0  0  0  0  0  0  0  0  0  0
   14.4288    0.5575   54.4638 H   0  0  0  0  0  0  0  0  0  0  0  0
   17.7470    0.4542   53.6252 H   0  0  0  0  0  0  0  0  0  0  0  0
   17.0459    3.2400   45.6289 H   0  0  0  0  0  0  0  0  0  0  0  0
   14.8689    4.9584   48.0081 H   0  0  0  0  0  0  0  0  0  0  0  0
   15.2566    2.9261   49.3203 H   0  0  0  0  0  0  0  0  0  0  0  0
   16.8642    2.9566   48.4510 H   0  0  0  0  0  0  0  0  0  0  0  0
   15.3555    0.3842   49.1286 H   0  0  0  0  0  0  0  0  0  0  0  0
   17.3816    1.8869   50.8648 H   0  0  0  0  0  0  0  0  0  0  0  0
   18.4841   -0.1283   51.2355 H   0  0  0  0  0  0  0  0  0  0  0  0
   15.8943   -0.9229   51.5896 H   0  0  0  0  0  0  0  0  0  0  0  0
   16.9131   -1.5183   49.0333 H   0  0  0  0  0  0  0  0  0  0  0  0
   22.1924    1.4279   50.7098 H   0  0  0  0  0  0  0  0  0  0  0  0
   23.2361   -2.8225   47.4359 H   0  0  0  0  0  0  0  0  0  0  0  0
   24.5007   -1.7820   48.1778 H   0  0  0  0  0  0  0  0  0  0  0  0
   18.4218   -2.8560   47.6076 H   0  0  0  0  0  0  0  0  0  0  0  0
  3  1  2  0
  4  1  1  0
  5  1  1  0
  6  2  2  0
  7  2  1  0
  8  2  1  0
 10  9  1  0
 10  2  1  0
 11  9  1  0
 12 11  1  0
 13 11  1  0
 14  1  1  0
 13 14  1  0
 15 13  1  0
 15 16  1  0
 17 12  1  0
 17 15  1  0
 19 18  2  0
 20 19  1  0
 21 20  2  0
 22 21  1  0
 23 22  2  0
 23 18  1  0
 24 23  1  0
 25 22  1  0
 26 25  2  0
 27 26  1  0
 27 21  1  0
 17 27  1  0
  4 28  1  0
  5 29  1  0
  7 30  1  0
  8 31  1  0
  9 32  1  0
  9 33  1  0
 11 34  1  1
 13 35  1  1
 15 36  1  1
 16 37  1  0
 17 38  1  6
 19 39  1  0
 24 40  1  0
 24 41  1  0
 26 42  1  0
M  END
