
     RDKit          3D

 28 28  0  0  0  0  0  0  0  0999 V2000
    9.8914    7.0582   36.6432 O   0  0  0  0  0  0  0  0  0  0  0  0
   10.4067    9.2081   35.5012 O   0  0  0  0  0  0  0  0  0  0  0  0
   10.8602    9.0075   38.0359 C   0  0  0  0  0  0  0  0  0  0  0  0
   11.7157   10.1028   37.6114 N   0  0  0  0  0  0  0  0  0  0  0  0
   12.3329   10.1514   36.3421 C   0  0  0  0  0  0  0  0  0  0  0  0
   12.3057    9.1635   35.5682 O   0  0  0  0  0  0  0  0  0  0  0  0
   13.0601   11.3717   35.9742 C   0  0  0  0  0  0  0  0  0  0  0  0
   14.4889   11.4464   36.2746 C   0  0  0  0  0  0  0  0  0  0  0  0
   15.1159   10.5567   37.1521 C   0  0  0  0  0  0  0  0  0  0  0  0
   12.4056   12.3586   35.4427 N   0  0  0  0  0  0  0  0  0  0  0  0
   16.7152   11.0153   37.3363 S   0  0  0  0  0  0  0  0  0  0  0  0
   16.5400   12.3005   36.2706 C   0  0  0  0  0  0  0  0  0  0  0  0
   11.0341   12.2130   35.4877 O   0  0  0  0  0  0  0  0  0  0  0  0
   10.0987   12.9266   34.7171 C   0  0  0  0  0  0  0  0  0  0  0  0
   17.5989   13.1777   35.9237 N   0  0  0  0  0  0  0  0  0  0  0  0
   15.2899   12.4205   35.7770 N   0  0  0  0  0  0  0  0  0  0  0  0
   10.1075    8.4996   36.7412 B   0  0  0  0  0  0  0  0  0  0  0  0
   10.7774    6.6717   36.4256 H   0  0  0  0  0  0  0  0  0  0  0  0
    9.5875    9.7302   35.3087 H   0  0  0  0  0  0  0  0  0  0  0  0
   10.1351    9.3628   38.7978 H   0  0  0  0  0  0  0  0  0  0  0  0
   11.4705    8.1754   38.4472 H   0  0  0  0  0  0  0  0  0  0  0  0
   11.9563   10.8741   38.2796 H   0  0  0  0  0  0  0  0  0  0  0  0
   14.6644    9.7182   37.6629 H   0  0  0  0  0  0  0  0  0  0  0  0
   10.3569   12.8398   33.6412 H   0  0  0  0  0  0  0  0  0  0  0  0
   10.1170   13.9952   35.0141 H   0  0  0  0  0  0  0  0  0  0  0  0
    9.0823   12.5156   34.8898 H   0  0  0  0  0  0  0  0  0  0  0  0
   17.4342   13.9629   35.2557 H   0  0  0  0  0  0  0  0  0  0  0  0
   18.5503   13.0458   36.3326 H   0  0  0  0  0  0  0  0  0  0  0  0
  4  3  1  0
  5  4  1  0
  6  5  2  0
  7  5  1  0
  8  7  1  0
  9  8  2  0
 10  7  2  3
 11  9  1  0
 12 11  1  0
 13 10  1  0
 14 13  1  0
 15 12  1  0
 16  8  1  0
 16 12  2  0
 17  2  1  0
 17  3  1  0
 17  1  1  0
  1 18  1  0
  2 19  1  0
  3 20  1  0
  3 21  1  0
  4 22  1  0
  9 23  1  0
 14 24  1  0
 14 25  1  0
 14 26  1  0
 15 27  1  0
 15 28  1  0
M  END
