
     RDKit          3D

 53 55  0  0  0  0  0  0  0  0999 V2000
   82.0339   17.2281   11.1186 N   0  0  0  0  0  0  0  0  0  0  0  0
   80.8278   17.5469   10.7356 C   0  0  0  0  0  0  0  0  0  0  0  0
   80.7030   17.9669    9.3199 C   0  0  0  0  0  0  0  0  0  0  0  0
   81.6211   17.6622    8.5089 O   0  0  0  0  0  0  0  0  0  0  0  0
   79.7425   16.7613   11.3606 C   0  0  0  0  0  0  0  0  0  0  0  0
   76.0682   17.0414   11.2762 C   0  0  0  0  0  0  0  0  0  0  0  0
   77.4162   17.1778   10.5557 C   0  0  0  0  0  0  0  0  0  0  0  0
   76.4603   16.8910   12.7035 C   0  0  0  0  0  0  0  0  0  0  0  0
   77.8111   16.8287   12.8320 C   0  0  0  0  0  0  0  0  0  0  0  0
   75.6485   17.0387   13.8212 C   0  0  0  0  0  0  0  0  0  0  0  0
   78.4286   17.1843   11.6070 N   0  0  0  0  0  0  0  0  0  0  0  0
   78.4334   16.7177   14.0921 C   0  0  0  0  0  0  0  0  0  0  0  0
   76.2418   17.0053   15.0943 C   0  0  0  0  0  0  0  0  0  0  0  0
   77.6272   16.8032   15.2309 C   0  0  0  0  0  0  0  0  0  0  0  0
   80.3209   13.5124   14.3002 P   0  0  0  0  0  0  0  0  0  0  0  0
   80.2687   13.0582   15.7406 O   0  0  0  0  0  0  0  0  0  0  0  0
   78.8006   13.9853   13.7839 O   0  0  0  0  0  0  0  0  0  0  0  0
   80.9135   12.3037   13.2999 O   0  0  0  0  0  0  0  0  0  0  0  0
   81.3027   14.8629   14.1418 O   0  0  0  0  0  0  0  0  0  0  0  0
   79.5803   18.6274    8.8638 O   0  0  0  0  0  0  0  0  0  0  0  0
   85.7362   13.9944   12.5630 N   0  0  0  0  0  0  0  0  0  0  0  0
   85.5613   14.7435   11.3598 C   0  0  0  0  0  0  0  0  0  0  0  0
   86.6693   14.7161   10.3450 C   0  0  0  0  0  0  0  0  0  0  0  0
   84.4275   15.4530   11.1664 C   0  0  0  0  0  0  0  0  0  0  0  0
   84.2348   16.1550    9.9812 O   0  0  0  0  0  0  0  0  0  0  0  0
   83.3905   15.4988   12.2451 C   0  0  0  0  0  0  0  0  0  0  0  0
   82.3467   16.3489   12.2171 C   0  0  0  0  0  0  0  0  0  0  0  0
   83.6020   14.6510   13.4595 C   0  0  0  0  0  0  0  0  0  0  0  0
   82.6073   14.5945   14.6040 C   0  0  0  0  0  0  0  0  0  0  0  0
   84.7363   13.9504   13.5733 C   0  0  0  0  0  0  0  0  0  0  0  0
   82.8230   17.7589   10.6899 H   0  0  0  0  0  0  0  0  0  0  0  0
   80.0299   16.0897   12.1747 H   0  0  0  0  0  0  0  0  0  0  0  0
   79.6465   15.9263   10.6298 H   0  0  0  0  0  0  0  0  0  0  0  0
   75.4501   17.9554   11.1402 H   0  0  0  0  0  0  0  0  0  0  0  0
   75.5135   16.1424   10.9316 H   0  0  0  0  0  0  0  0  0  0  0  0
   77.4415   18.1358    9.9979 H   0  0  0  0  0  0  0  0  0  0  0  0
   77.5594   16.3253    9.8553 H   0  0  0  0  0  0  0  0  0  0  0  0
   74.5814   17.1851   13.7146 H   0  0  0  0  0  0  0  0  0  0  0  0
   79.5076   16.7048   14.2102 H   0  0  0  0  0  0  0  0  0  0  0  0
   75.6251   17.1135   15.9770 H   0  0  0  0  0  0  0  0  0  0  0  0
   78.0754   16.7715   16.2155 H   0  0  0  0  0  0  0  0  0  0  0  0
   78.8205   14.9755   13.8091 H   0  0  0  0  0  0  0  0  0  0  0  0
   80.4396   11.4797   13.5775 H   0  0  0  0  0  0  0  0  0  0  0  0
   78.7754   18.7622    9.4640 H   0  0  0  0  0  0  0  0  0  0  0  0
   86.6104   13.4430   12.7148 H   0  0  0  0  0  0  0  0  0  0  0  0
   87.1772   13.7292   10.3326 H   0  0  0  0  0  0  0  0  0  0  0  0
   87.4309   15.4860   10.5913 H   0  0  0  0  0  0  0  0  0  0  0  0
   86.2589   14.9014    9.3300 H   0  0  0  0  0  0  0  0  0  0  0  0
   84.8870   16.1627    9.2077 H   0  0  0  0  0  0  0  0  0  0  0  0
   81.7925   16.5030   13.1291 H   0  0  0  0  0  0  0  0  0  0  0  0
   82.7112   13.6480   15.1865 H   0  0  0  0  0  0  0  0  0  0  0  0
   82.8816   15.3752   15.3435 H   0  0  0  0  0  0  0  0  0  0  0  0
   84.9230   13.3406   14.4494 H   0  0  0  0  0  0  0  0  0  0  0  0
  2  1  2  3
  3  2  1  0
  4  3  2  0
  5  2  1  0
  7  6  1  0
  8  6  1  0
  9  8  2  0
 10  8  1  0
 11  7  1  0
 11  9  1  0
 11  5  1  0
 12  9  1  0
 13 10  2  0
 14 13  1  0
 14 12  2  0
 16 15  2  0
 17 15  1  0
 18 15  1  0
 19 15  1  0
 20  3  1  0
 22 21  1  0
 23 22  1  0
 24 22  2  0
 25 24  1  0
 26 24  1  0
 27  1  1  0
 27 26  2  3
 28 26  1  0
 29 19  1  0
 29 28  1  0
 30 28  2  0
 30 21  1  0
  1 31  1  0
  5 32  1  0
  5 33  1  0
  6 34  1  0
  6 35  1  0
  7 36  1  0
  7 37  1  0
 10 38  1  0
 12 39  1  0
 13 40  1  0
 14 41  1  0
 17 42  1  0
 18 43  1  0
 20 44  1  0
 21 45  1  0
 23 46  1  0
 23 47  1  0
 23 48  1  0
 25 49  1  0
 27 50  1  0
 29 51  1  0
 29 52  1  0
 30 53  1  0
M  CHG  1   1   1
M  END
