
     RDKit          3D

 49 51  0  0  0  0  0  0  0  0999 V2000
   18.3132   68.7537   84.2129 P   0  0  2  0  0  0  0  0  0  0  0  0
   19.4657   67.3214   86.3146 P   0  0  1  0  0  0  0  0  0  0  0  0
   22.1702   66.4245   85.7959 P   0  0  0  0  0  0  0  0  0  0  0  0
   17.1102   68.3229   81.9834 C   0  0  0  0  0  0  0  0  0  0  0  0
   16.8865   68.6534   83.3331 O   0  0  0  0  0  0  0  0  0  0  0  0
   15.7991   68.6367   81.2607 C   0  0  1  0  0  0  0  0  0  0  0  0
   14.7207   68.1708   82.0555 O   0  0  0  0  0  0  0  0  0  0  0  0
   15.6536   70.1612   81.0641 C   0  0  1  0  0  0  0  0  0  0  0  0
   15.1187   70.4085   79.7934 O   0  0  0  0  0  0  0  0  0  0  0  0
   14.6562   70.5572   82.1309 C   0  0  1  0  0  0  0  0  0  0  0  0
   13.8704   71.6744   81.7662 O   0  0  0  0  0  0  0  0  0  0  0  0
   13.8656   69.2665   82.2958 C   0  0  2  0  0  0  0  0  0  0  0  0
    9.3031   68.6212   84.4864 N   0  0  0  0  0  0  0  0  0  0  0  0
   18.2468   70.0451   84.9965 O   0  0  0  0  0  0  0  0  0  0  0  0
   19.3784   65.9150   86.8601 O   0  0  0  0  0  0  0  0  0  0  0  0
   22.7923   66.7663   87.1288 O   0  0  0  0  0  0  0  0  0  0  0  0
    9.6400   68.7440   83.1628 C   0  0  0  0  0  0  0  0  0  0  0  0
    8.6316   68.6834   82.1616 N   0  0  0  0  0  0  0  0  0  0  0  0
   19.6473   68.7434   83.1860 O   0  0  0  0  0  0  0  0  0  0  0  0
   19.3410   68.4693   87.5347 O   0  0  0  0  0  0  0  0  0  0  0  0
   21.5675   64.8581   85.7900 O   0  0  0  0  0  0  0  0  0  0  0  0
   10.9412   68.9184   82.7969 N   0  0  0  0  0  0  0  0  0  0  0  0
   20.9124   67.5458   85.3711 N   0  0  0  0  0  0  0  0  0  0  0  0
   18.1866   67.4309   85.2416 O   0  0  0  0  0  0  0  0  0  0  0  0
   23.3117   66.5835   84.5812 O   0  0  0  0  0  0  0  0  0  0  0  0
   11.8842   68.9773   83.7706 C   0  0  0  0  0  0  0  0  0  0  0  0
   11.5908   68.8605   85.0874 C   0  0  0  0  0  0  0  0  0  0  0  0
   10.2526   68.6713   85.4705 C   0  0  0  0  0  0  0  0  0  0  0  0
    9.9158   68.5500   86.6781 O   0  0  0  0  0  0  0  0  0  0  0  0
   12.7270   68.9502   85.8198 N   0  0  0  0  0  0  0  0  0  0  0  0
   13.6968   69.1273   84.8684 C   0  0  0  0  0  0  0  0  0  0  0  0
   13.1977   69.1508   83.6008 N   0  0  0  0  0  0  0  0  0  0  0  0
   17.3549   67.2429   81.8812 H   0  0  0  0  0  0  0  0  0  0  0  0
   17.9134   68.9387   81.5237 H   0  0  0  0  0  0  0  0  0  0  0  0
   15.7913   68.1034   80.2842 H   0  0  0  0  0  0  0  0  0  0  0  0
   16.6183   70.7111   81.1893 H   0  0  0  0  0  0  0  0  0  0  0  0
   14.9717   69.5255   79.3632 H   0  0  0  0  0  0  0  0  0  0  0  0
   15.1943   70.7969   83.0731 H   0  0  0  0  0  0  0  0  0  0  0  0
   13.4911   71.5233   80.8619 H   0  0  0  0  0  0  0  0  0  0  0  0
   13.0940   69.2300   81.4931 H   0  0  0  0  0  0  0  0  0  0  0  0
    8.3012   68.4840   84.7514 H   0  0  0  0  0  0  0  0  0  0  0  0
    7.6291   68.5482   82.4202 H   0  0  0  0  0  0  0  0  0  0  0  0
    8.8847   68.7744   81.1526 H   0  0  0  0  0  0  0  0  0  0  0  0
   19.3747   69.2579   82.3869 H   0  0  0  0  0  0  0  0  0  0  0  0
   19.7409   68.0416   88.3333 H   0  0  0  0  0  0  0  0  0  0  0  0
   20.5882   64.9588   85.8974 H   0  0  0  0  0  0  0  0  0  0  0  0
   20.6618   67.3639   84.3735 H   0  0  0  0  0  0  0  0  0  0  0  0
   22.7853   66.6837   83.7480 H   0  0  0  0  0  0  0  0  0  0  0  0
   14.7492   69.2250   85.1011 H   0  0  0  0  0  0  0  0  0  0  0  0
  5  4  1  0
  1  5  1  6
  6  4  1  0
  7  6  1  0
  8  6  1  0
  8  9  1  0
 10  8  1  0
 10 11  1  0
 12 10  1  0
 12  7  1  0
 14  1  2  0
 15  2  2  0
 16  3  2  0
 17 13  1  0
 18 17  1  0
 19  1  1  0
  2 20  1  1
 21  3  1  0
 22 17  2  0
 23  2  1  0
 23  3  1  0
 24  2  1  0
 24  1  1  0
 25  3  1  0
 26 22  1  0
 27 26  2  0
 28 27  1  0
 28 13  1  0
 29 28  2  0
 30 27  1  0
 31 30  2  0
 32 31  1  0
 32 26  1  0
 12 32  1  0
  4 33  1  0
  4 34  1  0
  6 35  1  6
  8 36  1  1
  9 37  1  0
 10 38  1  1
 11 39  1  0
 12 40  1  6
 13 41  1  0
 18 42  1  0
 18 43  1  0
 19 44  1  0
 20 45  1  0
 21 46  1  0
 23 47  1  0
 25 48  1  0
 31 49  1  0
M  END
