
     RDKit          3D

 49 51  0  0  0  0  0  0  0  0999 V2000
    2.1973   23.5449   33.3619 P   0  0  2  0  0  0  0  0  0  0  0  0
    4.7288   23.6570   32.1374 P   0  0  1  0  0  0  0  0  0  0  0  0
    6.9289   21.8052   31.7607 P   0  0  0  0  0  0  0  0  0  0  0  0
    2.1500   23.8640   35.8962 C   0  0  0  0  0  0  0  0  0  0  0  0
    1.5543   24.3184   34.7035 O   0  0  0  0  0  0  0  0  0  0  0  0
    1.1441   24.1578   37.0028 C   0  0  1  0  0  0  0  0  0  0  0  0
    0.8068   25.5298   36.9565 O   0  0  0  0  0  0  0  0  0  0  0  0
   -0.1296   23.3200   36.8100 C   0  0  1  0  0  0  0  0  0  0  0  0
   -0.5710   22.9112   38.0753 O   0  0  0  0  0  0  0  0  0  0  0  0
   -1.1060   24.3036   36.1875 C   0  0  1  0  0  0  0  0  0  0  0  0
   -2.4471   24.0233   36.5321 O   0  0  0  0  0  0  0  0  0  0  0  0
   -0.5779   25.6392   36.7196 C   0  0  2  0  0  0  0  0  0  0  0  0
   -2.7441   30.2512   36.7419 N   0  0  0  0  0  0  0  0  0  0  0  0
    1.4957   24.1123   32.1490 O   0  0  0  0  0  0  0  0  0  0  0  0
    5.8381   24.6799   32.1326 O   0  0  0  0  0  0  0  0  0  0  0  0
    6.8822   21.9506   30.2589 O   0  0  0  0  0  0  0  0  0  0  0  0
   -2.7307   29.2716   37.6990 C   0  0  0  0  0  0  0  0  0  0  0  0
   -3.3690   29.4921   38.9496 N   0  0  0  0  0  0  0  0  0  0  0  0
    1.9867   21.8785   33.4813 O   0  0  0  0  0  0  0  0  0  0  0  0
    3.8809   23.6899   30.6888 O   0  0  0  0  0  0  0  0  0  0  0  0
    8.0762   22.8316   32.4303 O   0  0  0  0  0  0  0  0  0  0  0  0
   -2.1094   28.0836   37.4604 N   0  0  0  0  0  0  0  0  0  0  0  0
    5.3712   22.0776   32.4849 N   0  0  0  0  0  0  0  0  0  0  0  0
    3.7932   24.0590   33.4645 O   0  0  0  0  0  0  0  0  0  0  0  0
    7.3151   20.2263   32.1568 O   0  0  0  0  0  0  0  0  0  0  0  0
   -1.5035   27.9012   36.2604 C   0  0  0  0  0  0  0  0  0  0  0  0
   -1.4862   28.8502   35.2908 C   0  0  0  0  0  0  0  0  0  0  0  0
   -2.1333   30.0767   35.5324 C   0  0  0  0  0  0  0  0  0  0  0  0
   -2.1678   31.0004   34.6772 O   0  0  0  0  0  0  0  0  0  0  0  0
   -0.7959   28.3928   34.2183 N   0  0  0  0  0  0  0  0  0  0  0  0
   -0.4114   27.1354   34.6112 C   0  0  0  0  0  0  0  0  0  0  0  0
   -0.8552   26.8044   35.8582 N   0  0  0  0  0  0  0  0  0  0  0  0
    2.3458   22.7681   35.8972 H   0  0  0  0  0  0  0  0  0  0  0  0
    3.0997   24.4105   36.0855 H   0  0  0  0  0  0  0  0  0  0  0  0
    1.6247   23.9377   37.9823 H   0  0  0  0  0  0  0  0  0  0  0  0
    0.0282   22.4308   36.1523 H   0  0  0  0  0  0  0  0  0  0  0  0
   -1.1706   23.6254   38.4167 H   0  0  0  0  0  0  0  0  0  0  0  0
   -1.0151   24.2751   35.0809 H   0  0  0  0  0  0  0  0  0  0  0  0
   -2.7473   24.6744   37.2179 H   0  0  0  0  0  0  0  0  0  0  0  0
   -1.0415   25.8112   37.7167 H   0  0  0  0  0  0  0  0  0  0  0  0
   -3.2294   31.1557   36.9407 H   0  0  0  0  0  0  0  0  0  0  0  0
   -3.6491   30.4566   39.2352 H   0  0  0  0  0  0  0  0  0  0  0  0
   -3.5661   28.6971   39.5972 H   0  0  0  0  0  0  0  0  0  0  0  0
    2.8444   21.4825   33.1872 H   0  0  0  0  0  0  0  0  0  0  0  0
    4.3178   23.0042   30.1234 H   0  0  0  0  0  0  0  0  0  0  0  0
    8.9237   22.6016   31.9727 H   0  0  0  0  0  0  0  0  0  0  0  0
    5.4953   22.0121   33.5201 H   0  0  0  0  0  0  0  0  0  0  0  0
    8.1232   20.0196   31.6224 H   0  0  0  0  0  0  0  0  0  0  0  0
    0.1956   26.4815   33.9990 H   0  0  0  0  0  0  0  0  0  0  0  0
  5  4  1  0
  1  5  1  1
  6  4  1  0
  7  6  1  0
  8  6  1  0
  8  9  1  0
 10  8  1  0
 10 11  1  0
 12 10  1  0
 12  7  1  0
 14  1  2  0
 15  2  2  0
 16  3  2  0
 17 13  1  0
 18 17  1  0
 19  1  1  0
  2 20  1  6
 21  3  1  0
 22 17  2  0
 23  2  1  0
 23  3  1  0
 24  2  1  0
 24  1  1  0
 25  3  1  0
 26 22  1  0
 27 26  2  0
 28 27  1  0
 28 13  1  0
 29 28  2  0
 30 27  1  0
 31 30  2  0
 12 32  1  0
 32 31  1  0
 32 26  1  0
  4 33  1  0
  4 34  1  0
  6 35  1  1
  8 36  1  6
  9 37  1  0
 10 38  1  6
 11 39  1  0
 12 40  1  1
 13 41  1  0
 18 42  1  0
 18 43  1  0
 19 44  1  0
 20 45  1  0
 21 46  1  0
 23 47  1  0
 25 48  1  0
 31 49  1  0
M  END
