
     RDKit          3D

 49 51  0  0  0  0  0  0  0  0999 V2000
   18.6910   68.6537   84.1675 P   0  0  2  0  0  0  0  0  0  0  0  0
   20.1210   66.3783   84.9254 P   0  0  1  0  0  0  0  0  0  0  0  0
   22.6127   64.9402   85.2587 P   0  0  0  0  0  0  0  0  0  0  0  0
   17.2034   67.6502   82.3279 C   0  0  0  0  0  0  0  0  0  0  0  0
   17.2342   68.6356   83.3325 O   0  0  0  0  0  0  0  0  0  0  0  0
   15.9985   67.9948   81.4510 C   0  0  1  0  0  0  0  0  0  0  0  0
   14.8158   67.8043   82.2105 O   0  0  0  0  0  0  0  0  0  0  0  0
   16.0732   69.4706   81.0032 C   0  0  1  0  0  0  0  0  0  0  0  0
   15.6637   69.5633   79.6670 O   0  0  0  0  0  0  0  0  0  0  0  0
   15.0683   70.1592   81.9009 C   0  0  1  0  0  0  0  0  0  0  0  0
   14.4665   71.2861   81.2953 O   0  0  0  0  0  0  0  0  0  0  0  0
   14.1018   69.0206   82.1971 C   0  0  2  0  0  0  0  0  0  0  0  0
    9.3562   69.3138   84.0479 N   0  0  0  0  0  0  0  0  0  0  0  0
   18.3458   68.5936   85.6383 O   0  0  0  0  0  0  0  0  0  0  0  0
   19.5005   65.0019   84.8637 O   0  0  0  0  0  0  0  0  0  0  0  0
   22.3725   64.8556   86.7472 O   0  0  0  0  0  0  0  0  0  0  0  0
    9.7953   69.1697   82.7568 C   0  0  0  0  0  0  0  0  0  0  0  0
    8.8581   69.0643   81.6922 N   0  0  0  0  0  0  0  0  0  0  0  0
   19.5627   70.0497   83.8127 O   0  0  0  0  0  0  0  0  0  0  0  0
   19.8306   67.1243   86.4022 O   0  0  0  0  0  0  0  0  0  0  0  0
   22.1103   63.5403   84.4812 O   0  0  0  0  0  0  0  0  0  0  0  0
   11.1299   69.1204   82.4850 N   0  0  0  0  0  0  0  0  0  0  0  0
   21.8232   66.3223   84.5612 N   0  0  0  0  0  0  0  0  0  0  0  0
   19.4015   67.2151   83.6678 O   0  0  0  0  0  0  0  0  0  0  0  0
   24.2424   65.1847   84.9615 O   0  0  0  0  0  0  0  0  0  0  0  0
   12.0042   69.2274   83.5171 C   0  0  0  0  0  0  0  0  0  0  0  0
   11.6093   69.3709   84.8043 C   0  0  0  0  0  0  0  0  0  0  0  0
   10.2350   69.4131   85.0921 C   0  0  0  0  0  0  0  0  0  0  0  0
    9.8040   69.5391   86.2689 O   0  0  0  0  0  0  0  0  0  0  0  0
   12.6950   69.4438   85.6114 N   0  0  0  0  0  0  0  0  0  0  0  0
   13.7420   69.3386   84.7340 C   0  0  0  0  0  0  0  0  0  0  0  0
   13.3376   69.2087   83.4394 N   0  0  0  0  0  0  0  0  0  0  0  0
   17.0751   66.6402   82.7754 H   0  0  0  0  0  0  0  0  0  0  0  0
   18.1123   67.6687   81.6881 H   0  0  0  0  0  0  0  0  0  0  0  0
   15.9851   67.3096   80.5745 H   0  0  0  0  0  0  0  0  0  0  0  0
   17.0924   69.9123   81.1250 H   0  0  0  0  0  0  0  0  0  0  0  0
   15.4600   70.5192   79.4911 H   0  0  0  0  0  0  0  0  0  0  0  0
   15.5687   70.4869   82.8373 H   0  0  0  0  0  0  0  0  0  0  0  0
   13.8432   70.9798   80.5867 H   0  0  0  0  0  0  0  0  0  0  0  0
   13.3884   68.9434   81.3451 H   0  0  0  0  0  0  0  0  0  0  0  0
    8.3293   69.3461   84.2411 H   0  0  0  0  0  0  0  0  0  0  0  0
    7.8566   69.3231   81.8343 H   0  0  0  0  0  0  0  0  0  0  0  0
    9.1636   68.7258   80.7528 H   0  0  0  0  0  0  0  0  0  0  0  0
   20.3677   70.0162   84.3857 H   0  0  0  0  0  0  0  0  0  0  0  0
   19.3166   67.9416   86.1819 H   0  0  0  0  0  0  0  0  0  0  0  0
   21.2597   63.2917   84.9231 H   0  0  0  0  0  0  0  0  0  0  0  0
   21.9145   66.2381   83.5240 H   0  0  0  0  0  0  0  0  0  0  0  0
   24.6036   65.5524   85.8075 H   0  0  0  0  0  0  0  0  0  0  0  0
   14.7798   69.3454   85.0409 H   0  0  0  0  0  0  0  0  0  0  0  0
  5  4  1  0
  1  5  1  6
  6  4  1  0
  7  6  1  0
  8  6  1  0
  8  9  1  0
 10  8  1  0
 10 11  1  0
 12 10  1  0
 12  7  1  0
 14  1  2  0
 15  2  2  0
 16  3  2  0
 17 13  1  0
 18 17  1  0
 19  1  1  0
  2 20  1  1
 21  3  1  0
 22 17  2  0
 23  2  1  0
 23  3  1  0
 24  2  1  0
 24  1  1  0
 25  3  1  0
 26 22  1  0
 27 26  2  0
 28 27  1  0
 28 13  1  0
 29 28  2  0
 30 27  1  0
 31 30  2  0
 32 31  1  0
 32 26  1  0
 12 32  1  0
  4 33  1  0
  4 34  1  0
  6 35  1  6
  8 36  1  6
  9 37  1  0
 10 38  1  1
 11 39  1  0
 12 40  1  6
 13 41  1  0
 18 42  1  0
 18 43  1  0
 19 44  1  0
 20 45  1  0
 21 46  1  0
 23 47  1  0
 25 48  1  0
 31 49  1  0
M  END
