
     RDKit          3D

 49 51  0  0  0  0  0  0  0  0999 V2000
   21.1406   65.0316   79.2520 P   0  0  2  0  0  0  0  0  0  0  0  0
   18.7043   65.4458   77.9482 P   0  0  1  0  0  0  0  0  0  0  0  0
   16.9082   67.7061   78.2173 P   0  0  0  0  0  0  0  0  0  0  0  0
   20.9668   64.1850   81.6714 C   0  0  0  0  0  0  0  0  0  0  0  0
   21.6346   63.9743   80.4554 O   0  0  0  0  0  0  0  0  0  0  0  0
   21.8835   63.5778   82.7280 C   0  0  1  0  0  0  0  0  0  0  0  0
   21.9481   62.1743   82.5431 O   0  0  0  0  0  0  0  0  0  0  0  0
   23.3071   64.1527   82.6000 C   0  0  1  0  0  0  0  0  0  0  0  0
   23.8067   64.3473   83.8913 O   0  0  0  0  0  0  0  0  0  0  0  0
   24.0811   63.0472   81.9020 C   0  0  1  0  0  0  0  0  0  0  0  0
   25.4614   63.0388   82.2207 O   0  0  0  0  0  0  0  0  0  0  0  0
   23.3056   61.8169   82.3705 C   0  0  2  0  0  0  0  0  0  0  0  0
   24.6188   56.8723   82.2396 N   0  0  0  0  0  0  0  0  0  0  0  0
   22.0901   64.8245   78.0951 O   0  0  0  0  0  0  0  0  0  0  0  0
   17.6520   64.5439   77.3519 O   0  0  0  0  0  0  0  0  0  0  0  0
   17.5121   68.2556   76.9482 O   0  0  0  0  0  0  0  0  0  0  0  0
   24.7602   57.7935   83.2479 C   0  0  0  0  0  0  0  0  0  0  0  0
   25.3011   57.4016   84.5055 N   0  0  0  0  0  0  0  0  0  0  0  0
   21.1540   66.6348   79.7690 O   0  0  0  0  0  0  0  0  0  0  0  0
   19.6092   66.1931   76.7473 O   0  0  0  0  0  0  0  0  0  0  0  0
   15.4495   66.9412   77.9006 O   0  0  0  0  0  0  0  0  0  0  0  0
   24.3734   59.0877   83.0559 N   0  0  0  0  0  0  0  0  0  0  0  0
   17.9914   66.6118   79.0298 N   0  0  0  0  0  0  0  0  0  0  0  0
   19.6186   64.4211   78.9028 O   0  0  0  0  0  0  0  0  0  0  0  0
   16.6337   68.9610   79.2909 O   0  0  0  0  0  0  0  0  0  0  0  0
   23.8541   59.4369   81.8503 C   0  0  0  0  0  0  0  0  0  0  0  0
   23.6964   58.5535   80.8355 C   0  0  0  0  0  0  0  0  0  0  0  0
   24.0836   57.2196   81.0271 C   0  0  0  0  0  0  0  0  0  0  0  0
   23.9502   56.3560   80.1190 O   0  0  0  0  0  0  0  0  0  0  0  0
   23.1383   59.1716   79.7690 N   0  0  0  0  0  0  0  0  0  0  0  0
   22.9725   60.4570   80.2094 C   0  0  0  0  0  0  0  0  0  0  0  0
   23.4214   60.6487   81.4813 N   0  0  0  0  0  0  0  0  0  0  0  0
   20.8265   65.2616   81.9121 H   0  0  0  0  0  0  0  0  0  0  0  0
   19.9837   63.6660   81.6667 H   0  0  0  0  0  0  0  0  0  0  0  0
   21.4495   63.7896   83.7307 H   0  0  0  0  0  0  0  0  0  0  0  0
   23.3655   65.1029   82.0165 H   0  0  0  0  0  0  0  0  0  0  0  0
   23.4468   65.2170   84.2078 H   0  0  0  0  0  0  0  0  0  0  0  0
   23.9790   63.1578   80.8013 H   0  0  0  0  0  0  0  0  0  0  0  0
   25.5673   62.7459   83.1626 H   0  0  0  0  0  0  0  0  0  0  0  0
   23.6848   61.5369   83.3797 H   0  0  0  0  0  0  0  0  0  0  0  0
   24.9162   55.8833   82.4011 H   0  0  0  0  0  0  0  0  0  0  0  0
   26.1614   57.8631   84.8760 H   0  0  0  0  0  0  0  0  0  0  0  0
   24.8472   56.6506   85.0713 H   0  0  0  0  0  0  0  0  0  0  0  0
   20.2255   66.9576   79.6597 H   0  0  0  0  0  0  0  0  0  0  0  0
   19.9415   65.4512   76.1815 H   0  0  0  0  0  0  0  0  0  0  0  0
   15.6712   65.9778   77.8455 H   0  0  0  0  0  0  0  0  0  0  0  0
   17.4265   66.0811   79.7301 H   0  0  0  0  0  0  0  0  0  0  0  0
   16.1820   68.5386   80.0646 H   0  0  0  0  0  0  0  0  0  0  0  0
   22.5122   61.2344   79.6135 H   0  0  0  0  0  0  0  0  0  0  0  0
  5  4  1  0
  1  5  1  1
  6  4  1  0
  7  6  1  0
  8  6  1  0
  8  9  1  0
 10  8  1  0
 10 11  1  0
 12 10  1  0
 12  7  1  0
 14  1  2  0
 15  2  2  0
 16  3  2  0
 17 13  1  0
 18 17  1  0
 19  1  1  0
  2 20  1  6
 21  3  1  0
 22 17  2  0
 23  2  1  0
 23  3  1  0
 24  2  1  0
 24  1  1  0
 25  3  1  0
 26 22  1  0
 27 26  2  0
 28 27  1  0
 28 13  1  0
 29 28  2  0
 30 27  1  0
 31 30  2  0
 32 26  1  0
 32 31  1  0
 12 32  1  0
  4 33  1  0
  4 34  1  0
  6 35  1  1
  8 36  1  6
  9 37  1  0
 10 38  1  6
 11 39  1  0
 12 40  1  1
 13 41  1  0
 18 42  1  0
 18 43  1  0
 19 44  1  0
 20 45  1  0
 21 46  1  0
 23 47  1  0
 25 48  1  0
 31 49  1  0
M  END
