
     RDKit          3D

 49 51  0  0  0  0  0  0  0  0999 V2000
    1.7364   23.9146   33.0171 P   0  0  2  0  0  0  0  0  0  0  0  0
    4.3444   23.7834   31.9676 P   0  0  1  0  0  0  0  0  0  0  0  0
    6.4341   21.7752   31.8630 P   0  0  0  0  0  0  0  0  0  0  0  0
    1.5449   24.4067   35.5167 C   0  0  0  0  0  0  0  0  0  0  0  0
    1.0607   24.8161   34.2591 O   0  0  0  0  0  0  0  0  0  0  0  0
    0.4909   24.8376   36.5297 C   0  0  1  0  0  0  0  0  0  0  0  0
    0.2509   26.2219   36.3734 O   0  0  0  0  0  0  0  0  0  0  0  0
   -0.8212   24.0708   36.3018 C   0  0  1  0  0  0  0  0  0  0  0  0
   -1.3711   23.7772   37.5565 O   0  0  0  0  0  0  0  0  0  0  0  0
   -1.6859   25.0698   35.5518 C   0  0  1  0  0  0  0  0  0  0  0  0
   -3.0627   24.8987   35.8190 O   0  0  0  0  0  0  0  0  0  0  0  0
   -1.1048   26.4022   36.0339 C   0  0  2  0  0  0  0  0  0  0  0  0
   -2.7604   31.2078   35.6737 N   0  0  0  0  0  0  0  0  0  0  0  0
    1.1556   24.4418   31.7249 O   0  0  0  0  0  0  0  0  0  0  0  0
    5.5183   24.7315   31.9756 O   0  0  0  0  0  0  0  0  0  0  0  0
    6.4958   21.8213   30.3555 O   0  0  0  0  0  0  0  0  0  0  0  0
   -2.8628   30.3077   36.7009 C   0  0  0  0  0  0  0  0  0  0  0  0
   -3.4865   30.6893   37.9197 N   0  0  0  0  0  0  0  0  0  0  0  0
    1.4062   22.2767   33.2265 O   0  0  0  0  0  0  0  0  0  0  0  0
    3.5973   23.7718   30.4642 O   0  0  0  0  0  0  0  0  0  0  0  0
    7.6019   22.7699   32.5448 O   0  0  0  0  0  0  0  0  0  0  0  0
   -2.3710   29.0455   36.5627 N   0  0  0  0  0  0  0  0  0  0  0  0
    4.8544   22.1937   32.4582 N   0  0  0  0  0  0  0  0  0  0  0  0
    3.3532   24.3326   33.1981 O   0  0  0  0  0  0  0  0  0  0  0  0
    6.6860   20.2054   32.3840 O   0  0  0  0  0  0  0  0  0  0  0  0
   -1.7759   28.7088   35.3910 C   0  0  0  0  0  0  0  0  0  0  0  0
   -1.6461   29.5743   34.3541 C   0  0  0  0  0  0  0  0  0  0  0  0
   -2.1595   30.8778   34.4919 C   0  0  0  0  0  0  0  0  0  0  0  0
   -2.0851   31.7323   33.5701 O   0  0  0  0  0  0  0  0  0  0  0  0
   -0.9981   28.9658   33.3315 N   0  0  0  0  0  0  0  0  0  0  0  0
   -0.7557   27.7079   33.8237 C   0  0  0  0  0  0  0  0  0  0  0  0
   -1.2456   27.5218   35.0834 N   0  0  0  0  0  0  0  0  0  0  0  0
    1.6657   23.3032   35.6006 H   0  0  0  0  0  0  0  0  0  0  0  0
    2.5150   24.9036   35.7369 H   0  0  0  0  0  0  0  0  0  0  0  0
    0.8903   24.6543   37.5522 H   0  0  0  0  0  0  0  0  0  0  0  0
   -0.6811   23.1310   35.7142 H   0  0  0  0  0  0  0  0  0  0  0  0
   -0.7348   24.1190   38.2379 H   0  0  0  0  0  0  0  0  0  0  0  0
   -1.5250   24.9608   34.4582 H   0  0  0  0  0  0  0  0  0  0  0  0
   -3.2501   25.1911   36.7483 H   0  0  0  0  0  0  0  0  0  0  0  0
   -1.6199   26.6702   36.9835 H   0  0  0  0  0  0  0  0  0  0  0  0
   -3.1472   32.1714   35.7957 H   0  0  0  0  0  0  0  0  0  0  0  0
   -3.6638   31.6971   38.1276 H   0  0  0  0  0  0  0  0  0  0  0  0
   -3.7750   29.9714   38.6208 H   0  0  0  0  0  0  0  0  0  0  0  0
    2.2526   21.8084   33.0186 H   0  0  0  0  0  0  0  0  0  0  0  0
    3.4080   24.7239   30.2676 H   0  0  0  0  0  0  0  0  0  0  0  0
    8.4600   22.4564   32.1629 H   0  0  0  0  0  0  0  0  0  0  0  0
    4.9058   22.1906   33.5015 H   0  0  0  0  0  0  0  0  0  0  0  0
    5.8235   19.9280   32.7848 H   0  0  0  0  0  0  0  0  0  0  0  0
   -0.2165   26.9483   33.2731 H   0  0  0  0  0  0  0  0  0  0  0  0
  5  4  1  0
  1  5  1  1
  6  4  1  0
  7  6  1  0
  8  6  1  0
  8  9  1  0
 10  8  1  0
 10 11  1  0
 12 10  1  0
 12  7  1  0
 14  1  2  0
 15  2  2  0
 16  3  2  0
 17 13  1  0
 18 17  1  0
 19  1  1  0
  2 20  1  6
 21  3  1  0
 22 17  2  0
 23  2  1  0
 23  3  1  0
 24  2  1  0
 24  1  1  0
 25  3  1  0
 26 22  1  0
 27 26  2  0
 28 27  1  0
 28 13  1  0
 29 28  2  0
 30 27  1  0
 31 30  2  0
 12 32  1  0
 32 31  1  0
 32 26  1  0
  4 33  1  0
  4 34  1  0
  6 35  1  1
  8 36  1  6
  9 37  1  0
 10 38  1  6
 11 39  1  0
 12 40  1  1
 13 41  1  0
 18 42  1  0
 18 43  1  0
 19 44  1  0
 20 45  1  0
 21 46  1  0
 23 47  1  0
 25 48  1  0
 31 49  1  0
M  END
