
     RDKit          3D

 49 51  0  0  0  0  0  0  0  0999 V2000
   18.9592   67.6696   83.3152 P   0  0  2  0  0  0  0  0  0  0  0  0
   19.8461   66.7156   85.7851 P   0  0  1  0  0  0  0  0  0  0  0  0
   22.6909   66.1793   85.8667 P   0  0  0  0  0  0  0  0  0  0  0  0
   17.6248   66.8609   81.2734 C   0  0  0  0  0  0  0  0  0  0  0  0
   17.5175   67.6164   82.4561 O   0  0  0  0  0  0  0  0  0  0  0  0
   16.3885   67.2156   80.4455 C   0  0  1  0  0  0  0  0  0  0  0  0
   15.2606   67.2451   81.3051 O   0  0  0  0  0  0  0  0  0  0  0  0
   16.5630   68.6079   79.8014 C   0  0  1  0  0  0  0  0  0  0  0  0
   16.0540   68.5743   78.4969 O   0  0  0  0  0  0  0  0  0  0  0  0
   15.7051   69.5037   80.6681 C   0  0  1  0  0  0  0  0  0  0  0  0
   15.1627   70.6020   79.9621 O   0  0  0  0  0  0  0  0  0  0  0  0
   14.6646   68.5173   81.1806 C   0  0  2  0  0  0  0  0  0  0  0  0
   10.1379   69.5291   83.3060 N   0  0  0  0  0  0  0  0  0  0  0  0
   19.1916   69.1188   83.6784 O   0  0  0  0  0  0  0  0  0  0  0  0
   19.4797   65.5860   86.7194 O   0  0  0  0  0  0  0  0  0  0  0  0
   22.9032   67.4009   86.7288 O   0  0  0  0  0  0  0  0  0  0  0  0
   10.4525   69.1798   82.0178 C   0  0  0  0  0  0  0  0  0  0  0  0
    9.4241   69.0392   81.0454 N   0  0  0  0  0  0  0  0  0  0  0  0
   20.2290   67.0738   82.3839 O   0  0  0  0  0  0  0  0  0  0  0  0
   20.0045   68.1729   86.6054 O   0  0  0  0  0  0  0  0  0  0  0  0
   22.5786   64.7887   86.7997 O   0  0  0  0  0  0  0  0  0  0  0  0
   11.7494   68.9591   81.6615 N   0  0  0  0  0  0  0  0  0  0  0  0
   21.2779   66.3395   84.8678 N   0  0  0  0  0  0  0  0  0  0  0  0
   18.5869   66.7693   84.6845 O   0  0  0  0  0  0  0  0  0  0  0  0
   23.9610   66.0209   84.7870 O   0  0  0  0  0  0  0  0  0  0  0  0
   12.7128   69.1037   82.6060 C   0  0  0  0  0  0  0  0  0  0  0  0
   12.4416   69.4473   83.8873 C   0  0  0  0  0  0  0  0  0  0  0  0
   11.1060   69.6671   84.2631 C   0  0  0  0  0  0  0  0  0  0  0  0
   10.7882   69.9835   85.4401 O   0  0  0  0  0  0  0  0  0  0  0  0
   13.5929   69.5082   84.5989 N   0  0  0  0  0  0  0  0  0  0  0  0
   14.5487   69.1863   83.6717 C   0  0  0  0  0  0  0  0  0  0  0  0
   14.0274   68.9376   82.4376 N   0  0  0  0  0  0  0  0  0  0  0  0
   17.6321   65.7731   81.5041 H   0  0  0  0  0  0  0  0  0  0  0  0
   18.5258   67.1286   80.6797 H   0  0  0  0  0  0  0  0  0  0  0  0
   16.2382   66.4310   79.6711 H   0  0  0  0  0  0  0  0  0  0  0  0
   17.6256   68.9537   79.7912 H   0  0  0  0  0  0  0  0  0  0  0  0
   16.7127   68.0814   77.9406 H   0  0  0  0  0  0  0  0  0  0  0  0
   16.3102   69.8928   81.5150 H   0  0  0  0  0  0  0  0  0  0  0  0
   14.4567   70.2754   79.3462 H   0  0  0  0  0  0  0  0  0  0  0  0
   13.8786   68.4081   80.3988 H   0  0  0  0  0  0  0  0  0  0  0  0
    9.1382   69.6913   83.5651 H   0  0  0  0  0  0  0  0  0  0  0  0
    8.4240   69.2016   81.2979 H   0  0  0  0  0  0  0  0  0  0  0  0
    9.6598   68.7713   80.0641 H   0  0  0  0  0  0  0  0  0  0  0  0
   20.5509   66.2661   82.8545 H   0  0  0  0  0  0  0  0  0  0  0  0
   20.3290   67.9270   87.5082 H   0  0  0  0  0  0  0  0  0  0  0  0
   22.1928   65.0875   87.6614 H   0  0  0  0  0  0  0  0  0  0  0  0
   21.1177   65.4140   84.4106 H   0  0  0  0  0  0  0  0  0  0  0  0
   24.7327   66.4499   85.2363 H   0  0  0  0  0  0  0  0  0  0  0  0
   15.6046   69.1242   83.9010 H   0  0  0  0  0  0  0  0  0  0  0  0
  5  4  1  0
  1  5  1  6
  6  4  1  0
  7  6  1  0
  8  6  1  0
  8  9  1  0
 10  8  1  0
 10 11  1  0
 12 10  1  0
 12  7  1  0
 14  1  2  0
 15  2  2  0
 16  3  2  0
 17 13  1  0
 18 17  1  0
 19  1  1  0
  2 20  1  1
 21  3  1  0
 22 17  2  0
 23  2  1  0
 23  3  1  0
 24  2  1  0
 24  1  1  0
 25  3  1  0
 26 22  1  0
 27 26  2  0
 28 27  1  0
 28 13  1  0
 29 28  2  0
 30 27  1  0
 31 30  2  0
 32 31  1  0
 32 26  1  0
 12 32  1  0
  4 33  1  0
  4 34  1  0
  6 35  1  6
  8 36  1  6
  9 37  1  0
 10 38  1  1
 11 39  1  0
 12 40  1  6
 13 41  1  0
 18 42  1  0
 18 43  1  0
 19 44  1  0
 20 45  1  0
 21 46  1  0
 23 47  1  0
 25 48  1  0
 31 49  1  0
M  END
