
     RDKit          3D

 49 51  0  0  0  0  0  0  0  0999 V2000
    1.3494   22.6832   32.9361 P   0  0  2  0  0  0  0  0  0  0  0  0
    3.7862   22.7316   31.5289 P   0  0  1  0  0  0  0  0  0  0  0  0
    5.8567   20.7045   31.4073 P   0  0  0  0  0  0  0  0  0  0  0  0
    0.5140   22.7045   35.3503 C   0  0  0  0  0  0  0  0  0  0  0  0
    0.7884   23.5497   34.2575 O   0  0  0  0  0  0  0  0  0  0  0  0
    0.0399   23.6176   36.4747 C   0  0  1  0  0  0  0  0  0  0  0  0
    0.5037   24.9285   36.2205 O   0  0  0  0  0  0  0  0  0  0  0  0
   -1.4951   23.6323   36.5463 C   0  0  1  0  0  0  0  0  0  0  0  0
   -1.8622   23.6653   37.8979 O   0  0  0  0  0  0  0  0  0  0  0  0
   -1.8665   24.9318   35.8523 C   0  0  1  0  0  0  0  0  0  0  0  0
   -3.0601   25.4920   36.3597 O   0  0  0  0  0  0  0  0  0  0  0  0
   -0.6132   25.7782   36.0937 C   0  0  2  0  0  0  0  0  0  0  0  0
    0.3399   30.7515   35.5263 N   0  0  0  0  0  0  0  0  0  0  0  0
    0.3666   22.9126   31.8106 O   0  0  0  0  0  0  0  0  0  0  0  0
    4.6645   23.8420   31.0068 O   0  0  0  0  0  0  0  0  0  0  0  0
    5.1849   20.1568   30.1715 O   0  0  0  0  0  0  0  0  0  0  0  0
    0.0004   30.0339   36.6424 C   0  0  0  0  0  0  0  0  0  0  0  0
   -0.0962   30.6843   37.9024 N   0  0  0  0  0  0  0  0  0  0  0  0
    1.4915   21.0489   33.3163 O   0  0  0  0  0  0  0  0  0  0  0  0
    2.9270   22.0127   30.2786 O   0  0  0  0  0  0  0  0  0  0  0  0
    7.1663   21.6733   31.0022 O   0  0  0  0  0  0  0  0  0  0  0  0
   -0.2472   28.6979   36.5536 N   0  0  0  0  0  0  0  0  0  0  0  0
    4.7412   21.5785   32.4156 N   0  0  0  0  0  0  0  0  0  0  0  0
    2.8090   23.4702   32.6682 O   0  0  0  0  0  0  0  0  0  0  0  0
    6.3921   19.4373   32.3594 O   0  0  0  0  0  0  0  0  0  0  0  0
   -0.1429   28.1009   35.3398 C   0  0  0  0  0  0  0  0  0  0  0  0
    0.2004   28.7747   34.2133 C   0  0  0  0  0  0  0  0  0  0  0  0
    0.4504   30.1572   34.3011 C   0  0  0  0  0  0  0  0  0  0  0  0
    0.7639   30.8504   33.2977 O   0  0  0  0  0  0  0  0  0  0  0  0
    0.2414   27.9176   33.1646 N   0  0  0  0  0  0  0  0  0  0  0  0
   -0.0917   26.7147   33.7351 C   0  0  0  0  0  0  0  0  0  0  0  0
   -0.3532   26.8092   35.0709 N   0  0  0  0  0  0  0  0  0  0  0  0
   -0.2975   21.9713   35.1429 H   0  0  0  0  0  0  0  0  0  0  0  0
    1.4342   22.1617   35.6586 H   0  0  0  0  0  0  0  0  0  0  0  0
    0.4826   23.2575   37.4303 H   0  0  0  0  0  0  0  0  0  0  0  0
   -1.9640   22.7524   36.0421 H   0  0  0  0  0  0  0  0  0  0  0  0
   -2.0792   24.6096   38.1153 H   0  0  0  0  0  0  0  0  0  0  0  0
   -1.9981   24.7532   34.7639 H   0  0  0  0  0  0  0  0  0  0  0  0
   -3.5928   24.7773   36.7951 H   0  0  0  0  0  0  0  0  0  0  0  0
   -0.7278   26.2747   37.0832 H   0  0  0  0  0  0  0  0  0  0  0  0
    0.5226   31.7773   35.6122 H   0  0  0  0  0  0  0  0  0  0  0  0
   -0.3552   30.1422   38.7564 H   0  0  0  0  0  0  0  0  0  0  0  0
    0.0894   31.7079   37.9918 H   0  0  0  0  0  0  0  0  0  0  0  0
    2.4127   20.9372   33.6598 H   0  0  0  0  0  0  0  0  0  0  0  0
    2.4759   22.7635   29.8163 H   0  0  0  0  0  0  0  0  0  0  0  0
    6.8286   22.2777   30.2942 H   0  0  0  0  0  0  0  0  0  0  0  0
    5.3070   22.1123   33.1129 H   0  0  0  0  0  0  0  0  0  0  0  0
    5.5766   18.9179   32.5751 H   0  0  0  0  0  0  0  0  0  0  0  0
   -0.1266   25.7848   33.1829 H   0  0  0  0  0  0  0  0  0  0  0  0
  5  4  1  0
  1  5  1  1
  6  4  1  0
  7  6  1  0
  8  6  1  0
  8  9  1  0
 10  8  1  0
 10 11  1  0
 12 10  1  0
 12  7  1  0
 14  1  2  0
 15  2  2  0
 16  3  2  0
 17 13  1  0
 18 17  1  0
 19  1  1  0
  2 20  1  6
 21  3  1  0
 22 17  2  0
 23  2  1  0
 23  3  1  0
 24  2  1  0
 24  1  1  0
 25  3  1  0
 26 22  1  0
 27 26  2  0
 28 27  1  0
 28 13  1  0
 29 28  2  0
 30 27  1  0
 31 30  2  0
 12 32  1  0
 32 31  1  0
 32 26  1  0
  4 33  1  0
  4 34  1  0
  6 35  1  1
  8 36  1  6
  9 37  1  0
 10 38  1  6
 11 39  1  0
 12 40  1  1
 13 41  1  0
 18 42  1  0
 18 43  1  0
 19 44  1  0
 20 45  1  0
 21 46  1  0
 23 47  1  0
 25 48  1  0
 31 49  1  0
M  END
