
     RDKit          3D

 46 46  0  0  0  0  0  0  0  0999 V2000
   16.2109    8.4109   29.6229 P   0  0  2  0  0  0  0  0  0  0  0  0
   18.3840    7.1269   30.9847 P   0  0  0  0  0  0  0  0  0  0  0  0
   17.6041    7.5129   24.2466 S   0  0  0  0  0  0  0  0  0  0  0  0
   15.6550    8.7167   22.3803 N   0  0  0  0  0  0  0  0  0  0  0  0
   15.5935    9.2932   23.7020 C   0  0  0  0  0  0  0  0  0  0  0  0
   16.4529    8.8334   24.6562 C   0  0  0  0  0  0  0  0  0  0  0  0
   14.7842    9.0594   21.2539 C   0  0  0  0  0  0  0  0  0  0  0  0
   13.4894    8.2827   21.2771 C   0  0  0  0  0  0  0  0  0  0  0  0
   13.4463    6.8702   21.1973 C   0  0  0  0  0  0  0  0  0  0  0  0
   12.2477    6.2327   21.1649 N   0  0  0  0  0  0  0  0  0  0  0  0
   11.0839    6.9272   21.1488 C   0  0  0  0  0  0  0  0  0  0  0  0
   11.1015    8.2835   21.1795 N   0  0  0  0  0  0  0  0  0  0  0  0
   12.2691    8.9676   21.2610 C   0  0  0  0  0  0  0  0  0  0  0  0
   14.6337    6.0832   21.1550 N   0  0  0  0  0  0  0  0  0  0  0  0
    9.7836    6.2086   21.2091 C   0  0  0  0  0  0  0  0  0  0  0  0
   14.6197   10.4231   23.9792 C   0  0  0  0  0  0  0  0  0  0  0  0
   16.5741    9.4171   26.0517 C   0  0  1  0  0  0  0  0  0  0  0  0
   15.7659    8.6527   27.1071 C   0  0  0  0  0  0  0  0  0  0  0  0
   15.9282    9.3957   28.2855 O   0  0  0  0  0  0  0  0  0  0  0  0
   15.0984    7.4025   29.7694 O   0  0  0  0  0  0  0  0  0  0  0  0
   16.1448    9.4380   30.9432 O   0  0  0  0  0  0  0  0  0  0  0  0
   17.6453    7.5122   29.5177 O   0  0  0  0  0  0  0  0  0  0  0  0
   17.5527    7.4827   32.1909 O   0  0  0  0  0  0  0  0  0  0  0  0
   18.6279    5.4665   30.9342 O   0  0  0  0  0  0  0  0  0  0  0  0
   19.8891    7.8560   31.0576 O   0  0  0  0  0  0  0  0  0  0  0  0
   17.9178    9.4399   26.4443 O   0  0  0  0  0  0  0  0  0  0  0  0
   16.6929    6.5190   24.6505 H   0  0  0  0  0  0  0  0  0  0  0  0
   16.5032    8.1888   22.0859 H   0  0  0  0  0  0  0  0  0  0  0  0
   15.3034    8.8054   20.3036 H   0  0  0  0  0  0  0  0  0  0  0  0
   14.6286   10.1564   21.1932 H   0  0  0  0  0  0  0  0  0  0  0  0
   12.2433   10.0494   21.2821 H   0  0  0  0  0  0  0  0  0  0  0  0
   14.9857    5.7303   20.2374 H   0  0  0  0  0  0  0  0  0  0  0  0
   15.2481    5.9493   21.9850 H   0  0  0  0  0  0  0  0  0  0  0  0
    9.0370    6.8132   21.7662 H   0  0  0  0  0  0  0  0  0  0  0  0
    9.3986    6.0264   20.1835 H   0  0  0  0  0  0  0  0  0  0  0  0
    9.9228    5.2354   21.7243 H   0  0  0  0  0  0  0  0  0  0  0  0
   15.1785   11.3693   24.1371 H   0  0  0  0  0  0  0  0  0  0  0  0
   13.8823   10.5827   23.1746 H   0  0  0  0  0  0  0  0  0  0  0  0
   14.0154   10.1886   24.8801 H   0  0  0  0  0  0  0  0  0  0  0  0
   16.1948   10.4612   26.0733 H   0  0  0  0  0  0  0  0  0  0  0  0
   16.1645    7.6185   27.2168 H   0  0  0  0  0  0  0  0  0  0  0  0
   14.6925    8.6274   26.8149 H   0  0  0  0  0  0  0  0  0  0  0  0
   15.8550   10.3105   30.5742 H   0  0  0  0  0  0  0  0  0  0  0  0
   19.1658    5.3125   30.1169 H   0  0  0  0  0  0  0  0  0  0  0  0
   20.3000    7.6809   30.1737 H   0  0  0  0  0  0  0  0  0  0  0  0
   18.3650   10.1415   25.9016 H   0  0  0  0  0  0  0  0  0  0  0  0
  5  4  1  0
  6  5  2  3
  6  3  1  0
  7  4  1  0
  8  7  1  0
  9  8  2  0
 10  9  1  0
 11 10  2  0
 12 11  1  0
 13 12  2  0
 13  8  1  0
 14  9  1  0
 15 11  1  0
 16  5  1  0
 17  6  1  0
 18 17  1  0
 19 18  1  0
  1 19  1  6
 20  1  2  0
 21  1  1  0
 22  1  1  0
 22  2  1  0
 23  2  2  0
 24  2  1  0
 25  2  1  0
 17 26  1  0
  3 27  1  0
  4 28  1  0
  7 29  1  0
  7 30  1  0
 13 31  1  0
 14 32  1  0
 14 33  1  0
 15 34  1  0
 15 35  1  0
 15 36  1  0
 16 37  1  0
 16 38  1  0
 16 39  1  0
 17 40  1  6
 18 41  1  0
 18 42  1  0
 21 43  1  0
 24 44  1  0
 25 45  1  0
 26 46  1  0
M  END
