
     RDKit          3D

 46 46  0  0  0  0  0  0  0  0999 V2000
  -13.9104  -15.6936  -28.0128 P   0  0  2  0  0  0  0  0  0  0  0  0
  -16.2554  -16.4067  -26.5443 P   0  0  0  0  0  0  0  0  0  0  0  0
  -15.2885  -13.6066  -22.9590 S   0  0  0  0  0  0  0  0  0  0  0  0
  -14.0616  -11.0021  -22.2818 N   0  0  0  0  0  0  0  0  0  0  0  0
  -14.0891  -11.2596  -23.7015 C   0  0  0  0  0  0  0  0  0  0  0  0
  -14.6336  -12.4267  -24.1455 C   0  0  0  0  0  0  0  0  0  0  0  0
  -13.4687   -9.8289  -21.6363 C   0  0  0  0  0  0  0  0  0  0  0  0
  -11.9872  -10.0007  -21.3941 C   0  0  0  0  0  0  0  0  0  0  0  0
  -11.4562  -11.0214  -20.5655 C   0  0  0  0  0  0  0  0  0  0  0  0
  -10.1199  -11.0825  -20.3405 N   0  0  0  0  0  0  0  0  0  0  0  0
   -9.2776  -10.1696  -20.8766 C   0  0  0  0  0  0  0  0  0  0  0  0
   -9.7685   -9.1417  -21.6150 N   0  0  0  0  0  0  0  0  0  0  0  0
  -11.0911   -9.0540  -21.9019 C   0  0  0  0  0  0  0  0  0  0  0  0
  -12.2833  -12.0030  -19.9498 N   0  0  0  0  0  0  0  0  0  0  0  0
   -7.8138  -10.2910  -20.6505 C   0  0  0  0  0  0  0  0  0  0  0  0
  -13.5628  -10.2129  -24.6637 C   0  0  0  0  0  0  0  0  0  0  0  0
  -14.8215  -12.7745  -25.6082 C   0  0  1  0  0  0  0  0  0  0  0  0
  -14.2304  -14.1413  -25.9879 C   0  0  0  0  0  0  0  0  0  0  0  0
  -14.2749  -14.1705  -27.3887 O   0  0  0  0  0  0  0  0  0  0  0  0
  -12.5511  -16.1446  -27.5409 O   0  0  0  0  0  0  0  0  0  0  0  0
  -13.8331  -15.4743  -29.6710 O   0  0  0  0  0  0  0  0  0  0  0  0
  -14.9897  -16.9090  -27.5364 O   0  0  0  0  0  0  0  0  0  0  0  0
  -16.8199  -15.0637  -26.9327 O   0  0  0  0  0  0  0  0  0  0  0  0
  -17.4315  -17.5943  -26.6993 O   0  0  0  0  0  0  0  0  0  0  0  0
  -15.7453  -16.4125  -24.9500 O   0  0  0  0  0  0  0  0  0  0  0  0
  -16.1871  -12.7496  -25.9253 O   0  0  0  0  0  0  0  0  0  0  0  0
  -14.0551  -14.2778  -22.8630 H   0  0  0  0  0  0  0  0  0  0  0  0
  -14.6857  -11.5414  -21.6458 H   0  0  0  0  0  0  0  0  0  0  0  0
  -13.9476   -9.6827  -20.6432 H   0  0  0  0  0  0  0  0  0  0  0  0
  -13.7134   -8.9010  -22.1929 H   0  0  0  0  0  0  0  0  0  0  0  0
  -11.4446   -8.2249  -22.5011 H   0  0  0  0  0  0  0  0  0  0  0  0
  -13.0992  -12.3930  -20.4721 H   0  0  0  0  0  0  0  0  0  0  0  0
  -12.0430  -12.4457  -19.0384 H   0  0  0  0  0  0  0  0  0  0  0  0
   -7.6127  -10.8964  -19.7414 H   0  0  0  0  0  0  0  0  0  0  0  0
   -7.3448  -10.7841  -21.5272 H   0  0  0  0  0  0  0  0  0  0  0  0
   -7.3634   -9.2852  -20.5134 H   0  0  0  0  0  0  0  0  0  0  0  0
  -12.8362  -10.6771  -25.3632 H   0  0  0  0  0  0  0  0  0  0  0  0
  -14.3481   -9.7173  -25.2585 H   0  0  0  0  0  0  0  0  0  0  0  0
  -13.0714   -9.3938  -24.0985 H   0  0  0  0  0  0  0  0  0  0  0  0
  -14.3077  -12.0343  -26.2579 H   0  0  0  0  0  0  0  0  0  0  0  0
  -14.8418  -14.9580  -25.5418 H   0  0  0  0  0  0  0  0  0  0  0  0
  -13.1764  -14.2088  -25.6378 H   0  0  0  0  0  0  0  0  0  0  0  0
  -13.1674  -14.7527  -29.8027 H   0  0  0  0  0  0  0  0  0  0  0  0
  -17.4791  -17.7814  -27.6708 H   0  0  0  0  0  0  0  0  0  0  0  0
  -15.2984  -17.2879  -24.8284 H   0  0  0  0  0  0  0  0  0  0  0  0
  -16.4670  -11.7964  -25.9226 H   0  0  0  0  0  0  0  0  0  0  0  0
  5  4  1  0
  6  5  2  3
  6  3  1  0
  7  4  1  0
  8  7  1  0
  9  8  2  0
 10  9  1  0
 11 10  2  0
 12 11  1  0
 13  8  1  0
 13 12  2  0
 14  9  1  0
 15 11  1  0
 16  5  1  0
 17  6  1  0
 18 17  1  0
  1 19  1  1
 19 18  1  0
 20  1  2  0
 21  1  1  0
 22  2  1  0
 22  1  1  0
 23  2  2  0
 24  2  1  0
 25  2  1  0
 17 26  1  0
  3 27  1  0
  4 28  1  0
  7 29  1  0
  7 30  1  0
 13 31  1  0
 14 32  1  0
 14 33  1  0
 15 34  1  0
 15 35  1  0
 15 36  1  0
 16 37  1  0
 16 38  1  0
 16 39  1  0
 17 40  1  6
 18 41  1  0
 18 42  1  0
 21 43  1  0
 24 44  1  0
 25 45  1  0
 26 46  1  0
M  END
