
     RDKit          3D

 46 46  0  0  0  0  0  0  0  0999 V2000
  -14.2590   14.9993   28.1912 P   0  0  2  0  0  0  0  0  0  0  0  0
  -16.9346   16.0210   28.1360 P   0  0  0  0  0  0  0  0  0  0  0  0
  -15.5498   12.8645   23.1591 S   0  0  0  0  0  0  0  0  0  0  0  0
  -14.2682   10.2763   22.4686 N   0  0  0  0  0  0  0  0  0  0  0  0
  -14.3163   10.5273   23.8916 C   0  0  0  0  0  0  0  0  0  0  0  0
  -14.8865   11.6848   24.3414 C   0  0  0  0  0  0  0  0  0  0  0  0
  -13.6763    9.1017   21.8168 C   0  0  0  0  0  0  0  0  0  0  0  0
  -12.3521    9.4168   21.1552 C   0  0  0  0  0  0  0  0  0  0  0  0
  -11.1408    9.5155   21.8810 C   0  0  0  0  0  0  0  0  0  0  0  0
   -9.9908    9.8424   21.2369 N   0  0  0  0  0  0  0  0  0  0  0  0
   -9.9836   10.1228   19.9120 C   0  0  0  0  0  0  0  0  0  0  0  0
  -11.1421   10.0932   19.2059 N   0  0  0  0  0  0  0  0  0  0  0  0
  -12.3116    9.7328   19.7919 C   0  0  0  0  0  0  0  0  0  0  0  0
  -11.0891    9.2960   23.2877 N   0  0  0  0  0  0  0  0  0  0  0  0
   -8.7031   10.4348   19.2223 C   0  0  0  0  0  0  0  0  0  0  0  0
  -13.7741    9.4854   24.8495 C   0  0  0  0  0  0  0  0  0  0  0  0
  -15.0775   12.0364   25.8073 C   0  0  1  0  0  0  0  0  0  0  0  0
  -14.4814   13.4006   26.1875 C   0  0  0  0  0  0  0  0  0  0  0  0
  -14.5894   13.4608   27.5848 O   0  0  0  0  0  0  0  0  0  0  0  0
  -12.8845   15.4399   27.7530 O   0  0  0  0  0  0  0  0  0  0  0  0
  -14.2456   14.8161   29.8556 O   0  0  0  0  0  0  0  0  0  0  0  0
  -15.3290   16.1979   27.6483 O   0  0  0  0  0  0  0  0  0  0  0  0
  -17.0867   15.5030   29.5440 O   0  0  0  0  0  0  0  0  0  0  0  0
  -17.6132   17.5521   28.0108 O   0  0  0  0  0  0  0  0  0  0  0  0
  -17.7311   15.0362   27.0438 O   0  0  0  0  0  0  0  0  0  0  0  0
  -16.4429   12.0259   26.1308 O   0  0  0  0  0  0  0  0  0  0  0  0
  -14.3230   13.5488   23.0703 H   0  0  0  0  0  0  0  0  0  0  0  0
  -14.8664   10.8358   21.8257 H   0  0  0  0  0  0  0  0  0  0  0  0
  -14.3655    8.7443   21.0206 H   0  0  0  0  0  0  0  0  0  0  0  0
  -13.6122    8.2479   22.5225 H   0  0  0  0  0  0  0  0  0  0  0  0
  -13.2146    9.7156   19.1955 H   0  0  0  0  0  0  0  0  0  0  0  0
  -10.1642    9.2689   23.7716 H   0  0  0  0  0  0  0  0  0  0  0  0
  -11.9413    9.2910   23.8863 H   0  0  0  0  0  0  0  0  0  0  0  0
   -8.7260   10.0545   18.1791 H   0  0  0  0  0  0  0  0  0  0  0  0
   -7.8541    9.9571   19.7555 H   0  0  0  0  0  0  0  0  0  0  0  0
   -8.5512   11.5341   19.2061 H   0  0  0  0  0  0  0  0  0  0  0  0
  -14.4980    9.3219   25.6753 H   0  0  0  0  0  0  0  0  0  0  0  0
  -13.5611    8.5130   24.3743 H   0  0  0  0  0  0  0  0  0  0  0  0
  -12.8011    9.8229   25.2634 H   0  0  0  0  0  0  0  0  0  0  0  0
  -14.5694   11.2919   26.4567 H   0  0  0  0  0  0  0  0  0  0  0  0
  -15.0587   14.2171   25.6974 H   0  0  0  0  0  0  0  0  0  0  0  0
  -13.4117   13.4446   25.8849 H   0  0  0  0  0  0  0  0  0  0  0  0
  -13.5796   14.1037   30.0289 H   0  0  0  0  0  0  0  0  0  0  0  0
  -17.4539   17.8258   27.0723 H   0  0  0  0  0  0  0  0  0  0  0  0
  -17.4571   15.3699   26.1525 H   0  0  0  0  0  0  0  0  0  0  0  0
  -16.7352   11.0767   26.1140 H   0  0  0  0  0  0  0  0  0  0  0  0
  5  4  1  0
  6  5  2  3
  6  3  1  0
  7  4  1  0
  8  7  1  0
  9  8  2  0
 10  9  1  0
 11 10  2  0
 12 11  1  0
 13  8  1  0
 13 12  2  0
 14  9  1  0
 15 11  1  0
 16  5  1  0
 17  6  1  0
 18 17  1  0
 19 18  1  0
  1 19  1  6
 20  1  2  0
 21  1  1  0
 22  2  1  0
 22  1  1  0
 23  2  2  0
 24  2  1  0
 25  2  1  0
 17 26  1  0
  3 27  1  0
  4 28  1  0
  7 29  1  0
  7 30  1  0
 13 31  1  0
 14 32  1  0
 14 33  1  0
 15 34  1  0
 15 35  1  0
 15 36  1  0
 16 37  1  0
 16 38  1  0
 16 39  1  0
 17 40  1  1
 18 41  1  0
 18 42  1  0
 21 43  1  0
 24 44  1  0
 25 45  1  0
 26 46  1  0
M  END
