
     RDKit          3D

 46 46  0  0  0  0  0  0  0  0999 V2000
  -14.3120  -15.0359  -28.7925 P   0  0  2  0  0  0  0  0  0  0  0  0
  -17.0159  -15.9541  -28.6936 P   0  0  0  0  0  0  0  0  0  0  0  0
  -15.1809  -13.3392  -23.5238 S   0  0  0  0  0  0  0  0  0  0  0  0
  -13.9545  -10.7674  -22.7307 N   0  0  0  0  0  0  0  0  0  0  0  0
  -14.0940  -10.9078  -24.1602 C   0  0  0  0  0  0  0  0  0  0  0  0
  -14.6498  -12.0485  -24.6556 C   0  0  0  0  0  0  0  0  0  0  0  0
  -13.4028   -9.6028  -22.0351 C   0  0  0  0  0  0  0  0  0  0  0  0
  -11.8960   -9.6590  -21.9385 C   0  0  0  0  0  0  0  0  0  0  0  0
  -11.0421   -8.9018  -22.7797 C   0  0  0  0  0  0  0  0  0  0  0  0
   -9.6967   -9.0451  -22.6824 N   0  0  0  0  0  0  0  0  0  0  0  0
   -9.1475   -9.9184  -21.8072 C   0  0  0  0  0  0  0  0  0  0  0  0
   -9.9447  -10.7060  -21.0410 N   0  0  0  0  0  0  0  0  0  0  0  0
  -11.2944  -10.5774  -21.0714 C   0  0  0  0  0  0  0  0  0  0  0  0
  -11.5485   -7.9799  -23.7393 N   0  0  0  0  0  0  0  0  0  0  0  0
   -7.6694  -10.0182  -21.6906 C   0  0  0  0  0  0  0  0  0  0  0  0
  -13.6699   -9.7718  -25.0701 C   0  0  0  0  0  0  0  0  0  0  0  0
  -14.9508  -12.2797  -26.1225 C   0  0  1  0  0  0  0  0  0  0  0  0
  -14.4360  -13.6312  -26.6422 C   0  0  0  0  0  0  0  0  0  0  0  0
  -14.5786  -13.5537  -28.0346 O   0  0  0  0  0  0  0  0  0  0  0  0
  -12.9400  -15.5616  -28.4535 O   0  0  0  0  0  0  0  0  0  0  0  0
  -14.3423  -14.6949  -30.4316 O   0  0  0  0  0  0  0  0  0  0  0  0
  -15.3979  -16.2506  -28.3297 O   0  0  0  0  0  0  0  0  0  0  0  0
  -17.2137  -15.2939  -30.0345 O   0  0  0  0  0  0  0  0  0  0  0  0
  -17.7521  -17.4625  -28.6783 O   0  0  0  0  0  0  0  0  0  0  0  0
  -17.7032  -15.0491  -27.4645 O   0  0  0  0  0  0  0  0  0  0  0  0
  -16.3334  -12.1900  -26.3381 O   0  0  0  0  0  0  0  0  0  0  0  0
  -13.9306  -13.9828  -23.5845 H   0  0  0  0  0  0  0  0  0  0  0  0
  -14.4692  -11.4120  -22.0947 H   0  0  0  0  0  0  0  0  0  0  0  0
  -13.7967   -9.5835  -20.9952 H   0  0  0  0  0  0  0  0  0  0  0  0
  -13.7748   -8.6580  -22.4820 H   0  0  0  0  0  0  0  0  0  0  0  0
  -11.8973  -11.2168  -20.4396 H   0  0  0  0  0  0  0  0  0  0  0  0
  -11.1386   -7.9556  -24.6994 H   0  0  0  0  0  0  0  0  0  0  0  0
  -12.3987   -7.4036  -23.5675 H   0  0  0  0  0  0  0  0  0  0  0  0
   -7.1927   -9.0638  -21.9995 H   0  0  0  0  0  0  0  0  0  0  0  0
   -7.3964  -10.2370  -20.6374 H   0  0  0  0  0  0  0  0  0  0  0  0
   -7.2885  -10.8322  -22.3429 H   0  0  0  0  0  0  0  0  0  0  0  0
  -14.5637   -9.3226  -25.5520 H   0  0  0  0  0  0  0  0  0  0  0  0
  -13.1143   -8.9703  -24.5554 H   0  0  0  0  0  0  0  0  0  0  0  0
  -12.9731  -10.1503  -25.8468 H   0  0  0  0  0  0  0  0  0  0  0  0
  -14.4576  -11.5084  -26.7518 H   0  0  0  0  0  0  0  0  0  0  0  0
  -15.0434  -14.4603  -26.2140 H   0  0  0  0  0  0  0  0  0  0  0  0
  -13.3633  -13.7563  -26.3745 H   0  0  0  0  0  0  0  0  0  0  0  0
  -15.0873  -15.2390  -30.7922 H   0  0  0  0  0  0  0  0  0  0  0  0
  -17.0625  -18.0798  -28.3256 H   0  0  0  0  0  0  0  0  0  0  0  0
  -16.9740  -14.9154  -26.8079 H   0  0  0  0  0  0  0  0  0  0  0  0
  -16.5103  -12.5674  -27.2399 H   0  0  0  0  0  0  0  0  0  0  0  0
  5  4  1  0
  6  5  2  3
  6  3  1  0
  7  4  1  0
  8  7  1  0
  9  8  2  0
 10  9  1  0
 11 10  2  0
 12 11  1  0
 13  8  1  0
 13 12  2  0
 14  9  1  0
 15 11  1  0
 16  5  1  0
 17  6  1  0
 18 17  1  0
  1 19  1  1
 19 18  1  0
 20  1  2  0
 21  1  1  0
 22  2  1  0
 22  1  1  0
 23  2  2  0
 24  2  1  0
 25  2  1  0
 17 26  1  0
  3 27  1  0
  4 28  1  0
  7 29  1  0
  7 30  1  0
 13 31  1  0
 14 32  1  0
 14 33  1  0
 15 34  1  0
 15 35  1  0
 15 36  1  0
 16 37  1  0
 16 38  1  0
 16 39  1  0
 17 40  1  6
 18 41  1  0
 18 42  1  0
 21 43  1  0
 24 44  1  0
 25 45  1  0
 26 46  1  0
M  END
