
     RDKit          3D

 46 46  0  0  0  0  0  0  0  0999 V2000
   15.6867   -7.9044  -31.1106 P   0  0  2  0  0  0  0  0  0  0  0  0
   15.6701   -5.3245  -32.3464 P   0  0  0  0  0  0  0  0  0  0  0  0
   16.5915   -6.2199  -26.0166 S   0  0  0  0  0  0  0  0  0  0  0  0
   15.3954   -7.6476  -23.7021 N   0  0  0  0  0  0  0  0  0  0  0  0
   15.4507   -8.4526  -24.8991 C   0  0  0  0  0  0  0  0  0  0  0  0
   15.9781   -7.9100  -26.0340 C   0  0  0  0  0  0  0  0  0  0  0  0
   14.8206   -8.0606  -22.4176 C   0  0  0  0  0  0  0  0  0  0  0  0
   13.3330   -7.7937  -22.3416 C   0  0  0  0  0  0  0  0  0  0  0  0
   12.7853   -6.4922  -22.4517 C   0  0  0  0  0  0  0  0  0  0  0  0
   11.4496   -6.3036  -22.3075 N   0  0  0  0  0  0  0  0  0  0  0  0
   10.6260   -7.3324  -22.0035 C   0  0  0  0  0  0  0  0  0  0  0  0
   11.1322   -8.5823  -21.8399 N   0  0  0  0  0  0  0  0  0  0  0  0
   12.4549   -8.8335  -22.0145 C   0  0  0  0  0  0  0  0  0  0  0  0
   13.6025   -5.3501  -22.6828 N   0  0  0  0  0  0  0  0  0  0  0  0
    9.1589   -7.1029  -21.9213 C   0  0  0  0  0  0  0  0  0  0  0  0
   14.9556   -9.8857  -24.8589 C   0  0  0  0  0  0  0  0  0  0  0  0
   16.1639   -8.6670  -27.3337 C   0  0  1  0  0  0  0  0  0  0  0  0
   15.5511   -7.9530  -28.5456 C   0  0  0  0  0  0  0  0  0  0  0  0
   16.0167   -8.6774  -29.6515 O   0  0  0  0  0  0  0  0  0  0  0  0
   14.2013   -7.6786  -31.2495 O   0  0  0  0  0  0  0  0  0  0  0  0
   16.1624   -8.9874  -32.2954 O   0  0  0  0  0  0  0  0  0  0  0  0
   16.4132   -6.3798  -31.2595 O   0  0  0  0  0  0  0  0  0  0  0  0
   14.1636   -5.3850  -32.3155 O   0  0  0  0  0  0  0  0  0  0  0  0
   16.1883   -3.7931  -31.8957 O   0  0  0  0  0  0  0  0  0  0  0  0
   16.2466   -5.6167  -33.8890 O   0  0  0  0  0  0  0  0  0  0  0  0
   17.5276   -8.8766  -27.5704 O   0  0  0  0  0  0  0  0  0  0  0  0
   15.3391   -5.7030  -26.3980 H   0  0  0  0  0  0  0  0  0  0  0  0
   15.9855   -6.7925  -23.6295 H   0  0  0  0  0  0  0  0  0  0  0  0
   15.2997   -7.4732  -21.6039 H   0  0  0  0  0  0  0  0  0  0  0  0
   15.0855   -9.1108  -22.1790 H   0  0  0  0  0  0  0  0  0  0  0  0
   12.8221   -9.8419  -21.8743 H   0  0  0  0  0  0  0  0  0  0  0  0
   13.1553   -4.4247  -22.8676 H   0  0  0  0  0  0  0  0  0  0  0  0
   14.6343   -5.3610  -22.5429 H   0  0  0  0  0  0  0  0  0  0  0  0
    8.9515   -6.0792  -21.5439 H   0  0  0  0  0  0  0  0  0  0  0  0
    8.6941   -7.8369  -21.2296 H   0  0  0  0  0  0  0  0  0  0  0  0
    8.7101   -7.2179  -22.9298 H   0  0  0  0  0  0  0  0  0  0  0  0
   14.1630  -10.0307  -25.6227 H   0  0  0  0  0  0  0  0  0  0  0  0
   15.7440  -10.6381  -25.0277 H   0  0  0  0  0  0  0  0  0  0  0  0
   14.5537  -10.1178  -23.8507 H   0  0  0  0  0  0  0  0  0  0  0  0
   15.6696   -9.6607  -27.2840 H   0  0  0  0  0  0  0  0  0  0  0  0
   15.8925   -6.8932  -28.5770 H   0  0  0  0  0  0  0  0  0  0  0  0
   14.4407   -8.0042  -28.4952 H   0  0  0  0  0  0  0  0  0  0  0  0
   15.6648   -9.8201  -32.0952 H   0  0  0  0  0  0  0  0  0  0  0  0
   17.0318   -3.9466  -31.3998 H   0  0  0  0  0  0  0  0  0  0  0  0
   16.7062   -4.7794  -34.1510 H   0  0  0  0  0  0  0  0  0  0  0  0
   17.8343   -9.5537  -26.9114 H   0  0  0  0  0  0  0  0  0  0  0  0
  5  4  1  0
  6  5  2  3
  6  3  1  0
  7  4  1  0
  8  7  1  0
  9  8  2  0
 10  9  1  0
 11 10  2  0
 12 11  1  0
 13  8  1  0
 13 12  2  0
 14  9  1  0
 15 11  1  0
 16  5  1  0
 17  6  1  0
 18 17  1  0
 19 18  1  0
  1 19  1  1
 20  1  2  0
 21  1  1  0
 22  1  1  0
 22  2  1  0
 23  2  2  0
 24  2  1  0
 25  2  1  0
 17 26  1  0
  3 27  1  0
  4 28  1  0
  7 29  1  0
  7 30  1  0
 13 31  1  0
 14 32  1  0
 14 33  1  0
 15 34  1  0
 15 35  1  0
 15 36  1  0
 16 37  1  0
 16 38  1  0
 16 39  1  0
 17 40  1  1
 18 41  1  0
 18 42  1  0
 21 43  1  0
 24 44  1  0
 25 45  1  0
 26 46  1  0
M  END
