
     RDKit          3D

 35 36  0  0  0  0  0  0  0  0999 V2000
   25.0428   -1.9267    8.1798 P   0  0  0  0  0  0  0  0  0  0  0  0
   23.1748   -0.1931    8.4436 C   0  0  0  0  0  0  0  0  0  0  0  0
   24.5080   -0.4432    8.7771 O   0  0  0  0  0  0  0  0  0  0  0  0
   22.5321    0.4208    9.7007 C   0  0  1  0  0  0  0  0  0  0  0  0
   21.4458    1.2481    9.3475 O   0  0  0  0  0  0  0  0  0  0  0  0
   22.0383   -0.6413   10.6969 C   0  0  1  0  0  0  0  0  0  0  0  0
   22.2059   -0.2168   12.0339 O   0  0  0  0  0  0  0  0  0  0  0  0
   20.5831   -0.7724   10.3163 C   0  0  1  0  0  0  0  0  0  0  0  0
   19.7933   -1.2168   11.3888 O   0  0  0  0  0  0  0  0  0  0  0  0
   20.2757    0.6702    9.8821 C   0  0  2  0  0  0  0  0  0  0  0  0
   19.1519    0.8469    8.9251 N   0  0  0  0  0  0  0  0  0  0  0  0
   18.6953   -1.5490    8.9297 O   0  0  0  0  0  0  0  0  0  0  0  0
   18.7226    2.1180    8.5813 C   0  0  0  0  0  0  0  0  0  0  0  0
   19.2983    3.1455    9.0478 O   0  0  0  0  0  0  0  0  0  0  0  0
   17.6246    2.2883    7.7784 N   0  0  0  0  0  0  0  0  0  0  0  0
   16.9157    1.2236    7.3030 C   0  0  0  0  0  0  0  0  0  0  0  0
   15.8979    1.4167    6.5716 O   0  0  0  0  0  0  0  0  0  0  0  0
   17.2969   -0.0729    7.6707 C   0  0  0  0  0  0  0  0  0  0  0  0
   18.4101   -0.2460    8.5084 C   0  0  0  0  0  0  0  0  0  0  0  0
   23.9918   -3.0135    8.2379 O   0  0  0  0  0  0  0  0  0  0  0  0
   26.3413   -2.3420    9.1574 O   0  0  0  0  0  0  0  0  0  0  0  0
   25.5841   -1.7130    6.6063 O   0  0  0  0  0  0  0  0  0  0  0  0
   23.1077    0.5378    7.6060 H   0  0  0  0  0  0  0  0  0  0  0  0
   22.6657   -1.1405    8.1703 H   0  0  0  0  0  0  0  0  0  0  0  0
   23.3002    1.0596   10.1922 H   0  0  0  0  0  0  0  0  0  0  0  0
   22.5610   -1.6149   10.5699 H   0  0  0  0  0  0  0  0  0  0  0  0
   22.2204    0.7747   12.0623 H   0  0  0  0  0  0  0  0  0  0  0  0
   20.4968   -1.4942    9.4765 H   0  0  0  0  0  0  0  0  0  0  0  0
   19.7884   -2.2079   11.3364 H   0  0  0  0  0  0  0  0  0  0  0  0
   20.0905    1.2188   10.8176 H   0  0  0  0  0  0  0  0  0  0  0  0
   19.5861   -2.0081    8.8000 H   0  0  0  0  0  0  0  0  0  0  0  0
   17.3168    3.2568    7.5314 H   0  0  0  0  0  0  0  0  0  0  0  0
   16.7236   -0.9292    7.3365 H   0  0  0  0  0  0  0  0  0  0  0  0
   27.1425   -2.0650    8.6452 H   0  0  0  0  0  0  0  0  0  0  0  0
   25.4736   -0.7446    6.4303 H   0  0  0  0  0  0  0  0  0  0  0  0
  3  2  1  0
  3  1  1  0
  4  2  1  0
  5  4  1  0
  6  4  1  0
  6  7  1  0
  8  6  1  0
  8  9  1  0
 10  8  1  0
 10  5  1  0
 10 11  1  0
 13 11  1  0
 14 13  2  0
 15 13  1  0
 16 15  1  0
 17 16  2  0
 18 16  1  0
 19 18  2  0
 19 12  1  0
 19 11  1  0
 20  1  2  0
 21  1  1  0
 22  1  1  0
  2 23  1  0
  2 24  1  0
  4 25  1  1
  6 26  1  1
  7 27  1  0
  8 28  1  6
  9 29  1  0
 10 30  1  1
 12 31  1  0
 15 32  1  0
 18 33  1  0
 21 34  1  0
 22 35  1  0
M  END
