
     RDKit          3D

 25 26  0  0  0  0  0  0  0  0999 V2000
   -7.7958   -1.5485    6.7777 C   0  0  0  0  0  0  0  0  0  0  0  0
   -4.9540   -0.9861    9.1460 N   0  0  0  0  0  0  0  0  0  0  0  0
   -6.9189    0.4058   10.1893 O   0  0  0  0  0  0  0  0  0  0  0  0
   -5.4265    0.2926   10.1734 S   0  0  0  0  0  0  0  0  0  0  0  0
   -7.0210   -0.9809    7.7835 C   0  0  0  0  0  0  0  0  0  0  0  0
   -4.1640   -3.3013    7.8399 N   0  0  0  0  0  0  0  0  0  0  0  0
   -4.9351   -0.0568   11.5412 O   0  0  0  0  0  0  0  0  0  0  0  0
   -5.7796   -1.5484    8.1321 C   0  0  0  0  0  0  0  0  0  0  0  0
   -5.3464   -2.7158    7.4925 C   0  0  0  0  0  0  0  0  0  0  0  0
   -6.1436   -3.2955    6.4880 C   0  0  0  0  0  0  0  0  0  0  0  0
   -7.3603   -2.7020    6.1293 C   0  0  0  0  0  0  0  0  0  0  0  0
   -4.7098    1.8272    9.6750 C   0  0  0  0  0  0  0  0  0  0  0  0
   -3.7242   -4.4376    7.2435 C   0  0  0  0  0  0  0  0  0  0  0  0
   -4.4873   -5.0401    6.2430 C   0  0  0  0  0  0  0  0  0  0  0  0
   -5.7010   -4.4653    5.8640 C   0  0  0  0  0  0  0  0  0  0  0  0
   -8.7495   -1.1086    6.5152 H   0  0  0  0  0  0  0  0  0  0  0  0
   -3.9850   -1.3445    9.2974 H   0  0  0  0  0  0  0  0  0  0  0  0
   -7.4329   -0.1382    8.3099 H   0  0  0  0  0  0  0  0  0  0  0  0
   -7.9805   -3.1393    5.3559 H   0  0  0  0  0  0  0  0  0  0  0  0
   -4.0823    2.2453   10.4887 H   0  0  0  0  0  0  0  0  0  0  0  0
   -4.0615    1.6601    8.7901 H   0  0  0  0  0  0  0  0  0  0  0  0
   -5.5064    2.5485    9.3992 H   0  0  0  0  0  0  0  0  0  0  0  0
   -2.7814   -4.8739    7.5452 H   0  0  0  0  0  0  0  0  0  0  0  0
   -4.1402   -5.9465    5.7642 H   0  0  0  0  0  0  0  0  0  0  0  0
   -6.2913   -4.9362    5.0869 H   0  0  0  0  0  0  0  0  0  0  0  0
  4  2  1  0
  4  3  2  0
  5  1  2  0
  7  4  2  0
  8  5  1  0
  8  2  1  0
  9  8  2  0
  9  6  1  0
 10  9  1  0
 11  1  1  0
 11 10  2  0
  4 12  1  0
 13  6  2  0
 14 13  1  0
 15 14  2  0
 15 10  1  0
  1 16  1  0
  2 17  1  0
  5 18  1  0
 11 19  1  0
 12 20  1  0
 12 21  1  0
 12 22  1  0
 13 23  1  0
 14 24  1  0
 15 25  1  0
M  END
