
     RDKit          3D

 75 78  0  0  0  0  0  0  0  0999 V2000
   -7.8552   14.3764  -14.2227 N   0  0  0  0  0  0  0  0  0  0  0  0
   -8.6210   15.5478  -14.4907 C   0  0  0  0  0  0  0  0  0  0  0  0
   -9.9890   15.4356  -14.7592 C   0  0  0  0  0  0  0  0  0  0  0  0
  -10.7445   16.5731  -15.0153 C   0  0  0  0  0  0  0  0  0  0  0  0
  -10.1378   17.8313  -15.0045 C   0  0  0  0  0  0  0  0  0  0  0  0
   -8.7713   17.9544  -14.7228 C   0  0  0  0  0  0  0  0  0  0  0  0
   -8.0115   16.8111  -14.4763 C   0  0  0  0  0  0  0  0  0  0  0  0
  -11.0972   19.2315  -15.4121 S   0  0  0  0  0  0  0  0  0  0  0  0
  -12.3029   19.2453  -14.5225 O   0  0  0  0  0  0  0  0  0  0  0  0
  -10.2871   20.4738  -15.1937 O   0  0  0  0  0  0  0  0  0  0  0  0
  -11.6047   19.2285  -17.0702 N   0  0  0  0  0  0  0  0  0  0  0  0
  -10.4693   19.1519  -18.0032 C   0  0  0  0  0  0  0  0  0  0  0  0
  -10.7914   19.8835  -19.3214 C   0  0  0  0  0  0  0  0  0  0  0  0
  -10.4886   21.3886  -19.2184 C   0  0  0  0  0  0  0  0  0  0  0  0
   -9.9843   19.2646  -20.4648 C   0  0  0  0  0  0  0  0  0  0  0  0
  -12.7106   18.2975  -17.3558 C   0  0  0  0  0  0  0  0  0  0  0  0
  -13.9162   19.0973  -17.8832 C   0  0  1  0  0  0  0  0  0  0  0  0
  -14.9487   18.2257  -18.2660 O   0  0  0  0  0  0  0  0  0  0  0  0
  -14.4334   20.1459  -16.8700 C   0  0  1  0  0  0  0  0  0  0  0  0
  -15.2438   21.0990  -17.5985 N   0  0  0  0  0  0  0  0  0  0  0  0
  -14.8934   22.4543  -17.7839 C   0  0  0  0  0  0  0  0  0  0  0  0
  -13.9102   22.9842  -17.1963 O   0  0  0  0  0  0  0  0  0  0  0  0
  -15.7006   23.1729  -18.6324 O   0  0  0  0  0  0  0  0  0  0  0  0
  -15.8236   24.5788  -18.5982 C   0  0  1  0  0  0  0  0  0  0  0  0
  -16.1722   25.0062  -19.9973 C   0  0  0  0  0  0  0  0  0  0  0  0
  -17.5474   24.7624  -20.1608 O   0  0  0  0  0  0  0  0  0  0  0  0
  -18.1474   24.9493  -18.8924 C   0  0  1  0  0  0  0  0  0  0  0  0
  -19.0309   23.8797  -18.6221 O   0  0  0  0  0  0  0  0  0  0  0  0
  -18.5072   23.1501  -17.5350 C   0  0  0  0  0  0  0  0  0  0  0  0
  -17.5677   24.0514  -16.7614 C   0  0  0  0  0  0  0  0  0  0  0  0
  -17.0669   24.9989  -17.8284 C   0  0  1  0  0  0  0  0  0  0  0  0
  -15.2806   19.5725  -15.7132 C   0  0  0  0  0  0  0  0  0  0  0  0
  -14.9269   21.8856  -14.7377 C   0  0  0  0  0  0  0  0  0  0  0  0
  -15.0498   22.8136  -13.6986 C   0  0  0  0  0  0  0  0  0  0  0  0
  -15.6584   22.4450  -12.4967 C   0  0  0  0  0  0  0  0  0  0  0  0
  -16.1749   21.1578  -12.3434 C   0  0  0  0  0  0  0  0  0  0  0  0
  -16.0906   20.2423  -13.3951 C   0  0  0  0  0  0  0  0  0  0  0  0
  -15.4476   20.5884  -14.5983 C   0  0  0  0  0  0  0  0  0  0  0  0
   -8.2613   13.5827  -13.6784 H   0  0  0  0  0  0  0  0  0  0  0  0
   -6.8728   14.2903  -14.5668 H   0  0  0  0  0  0  0  0  0  0  0  0
  -10.4668   14.4640  -14.7741 H   0  0  0  0  0  0  0  0  0  0  0  0
  -11.7973   16.4643  -15.2428 H   0  0  0  0  0  0  0  0  0  0  0  0
   -8.2941   18.9253  -14.7063 H   0  0  0  0  0  0  0  0  0  0  0  0
   -6.9537   16.9071  -14.2665 H   0  0  0  0  0  0  0  0  0  0  0  0
   -9.5734   19.6424  -17.5636 H   0  0  0  0  0  0  0  0  0  0  0  0
  -10.1950   18.0905  -18.1968 H   0  0  0  0  0  0  0  0  0  0  0  0
  -11.8641   19.7427  -19.5690 H   0  0  0  0  0  0  0  0  0  0  0  0
   -9.4007   21.5719  -19.1025 H   0  0  0  0  0  0  0  0  0  0  0  0
  -10.8371   21.9195  -20.1303 H   0  0  0  0  0  0  0  0  0  0  0  0
  -11.0034   21.8209  -18.3341 H   0  0  0  0  0  0  0  0  0  0  0  0
   -9.2130   18.5672  -20.0721 H   0  0  0  0  0  0  0  0  0  0  0  0
   -9.4796   20.0612  -21.0523 H   0  0  0  0  0  0  0  0  0  0  0  0
  -10.6564   18.7059  -21.1509 H   0  0  0  0  0  0  0  0  0  0  0  0
  -12.9941   17.6917  -16.4711 H   0  0  0  0  0  0  0  0  0  0  0  0
  -12.4145   17.5559  -18.1309 H   0  0  0  0  0  0  0  0  0  0  0  0
  -13.5972   19.6639  -18.7844 H   0  0  0  0  0  0  0  0  0  0  0  0
  -15.4382   17.9720  -17.4399 H   0  0  0  0  0  0  0  0  0  0  0  0
  -13.5524   20.6612  -16.4291 H   0  0  0  0  0  0  0  0  0  0  0  0
  -16.1198   20.7568  -18.0564 H   0  0  0  0  0  0  0  0  0  0  0  0
  -14.8965   25.0803  -18.2412 H   0  0  0  0  0  0  0  0  0  0  0  0
  -15.5911   24.4359  -20.7541 H   0  0  0  0  0  0  0  0  0  0  0  0
  -15.9671   26.0915  -20.1364 H   0  0  0  0  0  0  0  0  0  0  0  0
  -18.7251   25.8995  -18.8965 H   0  0  0  0  0  0  0  0  0  0  0  0
  -17.9754   22.2515  -17.9137 H   0  0  0  0  0  0  0  0  0  0  0  0
  -19.3370   22.8100  -16.8798 H   0  0  0  0  0  0  0  0  0  0  0  0
  -18.1489   24.6235  -16.0048 H   0  0  0  0  0  0  0  0  0  0  0  0
  -16.7631   23.4945  -16.2404 H   0  0  0  0  0  0  0  0  0  0  0  0
  -16.9415   26.0300  -17.4271 H   0  0  0  0  0  0  0  0  0  0  0  0
  -14.8220   18.6592  -15.2908 H   0  0  0  0  0  0  0  0  0  0  0  0
  -16.2767   19.2647  -16.1003 H   0  0  0  0  0  0  0  0  0  0  0  0
  -14.4211   22.1788  -15.6492 H   0  0  0  0  0  0  0  0  0  0  0  0
  -14.6467   23.8112  -13.8155 H   0  0  0  0  0  0  0  0  0  0  0  0
  -15.7317   23.1582  -11.6859 H   0  0  0  0  0  0  0  0  0  0  0  0
  -16.6480   20.8720  -11.4128 H   0  0  0  0  0  0  0  0  0  0  0  0
  -16.4859   19.2526  -13.2439 H   0  0  0  0  0  0  0  0  0  0  0  0
  2  1  1  0
  3  2  2  0
  4  3  1  0
  5  4  2  0
  6  5  1  0
  7  2  1  0
  7  6  2  0
  8  5  1  0
  9  8  2  0
 10  8  2  0
  8 11  1  0
 12 11  1  0
 13 12  1  0
 13 14  1  0
 15 13  1  0
 16 11  1  0
 17 16  1  0
 17 18  1  0
 19 17  1  0
 20 19  1  0
 21 20  1  0
 22 21  2  0
 23 21  1  0
 24 23  1  0
 25 24  1  0
 26 25  1  0
 27 26  1  0
 28 27  1  0
 29 28  1  0
 30 29  1  0
 31 30  1  0
 31 27  1  0
 31 24  1  0
 19 32  1  0
 34 33  2  0
 35 34  1  0
 36 35  2  0
 37 36  1  0
 38 33  1  0
 38 37  2  0
 38 32  1  0
  1 39  1  0
  1 40  1  0
  3 41  1  0
  4 42  1  0
  6 43  1  0
  7 44  1  0
 12 45  1  0
 12 46  1  0
 13 47  1  0
 14 48  1  0
 14 49  1  0
 14 50  1  0
 15 51  1  0
 15 52  1  0
 15 53  1  0
 16 54  1  0
 16 55  1  0
 17 56  1  6
 18 57  1  0
 19 58  1  1
 20 59  1  0
 24 60  1  1
 25 61  1  0
 25 62  1  0
 27 63  1  6
 29 64  1  0
 29 65  1  0
 30 66  1  0
 30 67  1  0
 31 68  1  1
 32 69  1  0
 32 70  1  0
 33 71  1  0
 34 72  1  0
 35 73  1  0
 36 74  1  0
 37 75  1  0
M  END
