
     RDKit          3D

 49 51  0  0  0  0  0  0  0  0999 V2000
    7.7996   46.0785   32.2880 P   0  0  2  0  0  0  0  0  0  0  0  0
    6.2749   45.4378   34.5600 P   0  0  1  0  0  0  0  0  0  0  0  0
    3.9890   44.8980   32.8015 P   0  0  0  0  0  0  0  0  0  0  0  0
    6.3646   46.5450   30.2220 C   0  0  0  0  0  0  0  0  0  0  0  0
    7.5011   47.0020   30.9194 O   0  0  0  0  0  0  0  0  0  0  0  0
    6.4180   47.1911   28.8287 C   0  0  1  0  0  0  0  0  0  0  0  0
    6.3596   48.6025   28.9822 O   0  0  0  0  0  0  0  0  0  0  0  0
    7.7326   46.8269   28.1056 C   0  0  1  0  0  0  0  0  0  0  0  0
    7.5179   46.7048   26.7193 O   0  0  0  0  0  0  0  0  0  0  0  0
    8.5993   48.0311   28.4189 C   0  0  1  0  0  0  0  0  0  0  0  0
    9.6173   48.2753   27.4815 O   0  0  0  0  0  0  0  0  0  0  0  0
    7.5654   49.1492   28.4871 C   0  0  2  0  0  0  0  0  0  0  0  0
    9.2219   54.0274   28.5936 N   0  0  0  0  0  0  0  0  0  0  0  0
    9.0478   46.6243   32.9419 O   0  0  0  0  0  0  0  0  0  0  0  0
    6.4088   46.3766   35.7342 O   0  0  0  0  0  0  0  0  0  0  0  0
    2.6162   44.2784   32.8613 O   0  0  0  0  0  0  0  0  0  0  0  0
    8.8987   53.2464   27.5089 C   0  0  0  0  0  0  0  0  0  0  0  0
    8.9981   53.7860   26.1966 N   0  0  0  0  0  0  0  0  0  0  0  0
    7.9966   44.4672   31.8481 O   0  0  0  0  0  0  0  0  0  0  0  0
    7.4521   44.2497   34.6441 O   0  0  0  0  0  0  0  0  0  0  0  0
    3.8613   46.4732   32.2618 O   0  0  0  0  0  0  0  0  0  0  0  0
    8.4817   51.9559   27.6807 N   0  0  0  0  0  0  0  0  0  0  0  0
    4.6559   44.8036   34.4049 N   0  0  0  0  0  0  0  0  0  0  0  0
    6.4379   46.4187   33.2148 O   0  0  0  0  0  0  0  0  0  0  0  0
    4.9244   44.0457   31.7079 O   0  0  0  0  0  0  0  0  0  0  0  0
    8.4009   51.4813   28.9497 C   0  0  0  0  0  0  0  0  0  0  0  0
    8.7125   52.2303   30.0412 C   0  0  0  0  0  0  0  0  0  0  0  0
    9.1400   53.5517   29.8723 C   0  0  0  0  0  0  0  0  0  0  0  0
    9.4423   54.2952   30.8460 O   0  0  0  0  0  0  0  0  0  0  0  0
    8.5305   51.5111   31.1706 N   0  0  0  0  0  0  0  0  0  0  0  0
    8.0972   50.3099   30.6989 C   0  0  0  0  0  0  0  0  0  0  0  0
    8.0148   50.2579   29.3396 N   0  0  0  0  0  0  0  0  0  0  0  0
    6.3564   45.4379   30.0993 H   0  0  0  0  0  0  0  0  0  0  0  0
    5.4382   46.8670   30.7461 H   0  0  0  0  0  0  0  0  0  0  0  0
    5.5375   46.8486   28.2421 H   0  0  0  0  0  0  0  0  0  0  0  0
    8.2062   45.8964   28.4994 H   0  0  0  0  0  0  0  0  0  0  0  0
    6.5559   46.4897   26.6025 H   0  0  0  0  0  0  0  0  0  0  0  0
    9.0945   47.8862   29.3996 H   0  0  0  0  0  0  0  0  0  0  0  0
    9.2002   48.5116   26.6128 H   0  0  0  0  0  0  0  0  0  0  0  0
    7.3598   49.5314   27.4616 H   0  0  0  0  0  0  0  0  0  0  0  0
    9.5382   55.0118   28.4391 H   0  0  0  0  0  0  0  0  0  0  0  0
    9.9137   53.8089   25.6952 H   0  0  0  0  0  0  0  0  0  0  0  0
    8.1515   54.1667   25.7186 H   0  0  0  0  0  0  0  0  0  0  0  0
    8.7337   44.4747   31.1866 H   0  0  0  0  0  0  0  0  0  0  0  0
    7.1160   43.5126   34.0748 H   0  0  0  0  0  0  0  0  0  0  0  0
    3.5029   46.3985   31.3414 H   0  0  0  0  0  0  0  0  0  0  0  0
    4.6969   43.7917   34.6615 H   0  0  0  0  0  0  0  0  0  0  0  0
    5.8309   44.0291   32.1061 H   0  0  0  0  0  0  0  0  0  0  0  0
    7.8423   49.4879   31.3511 H   0  0  0  0  0  0  0  0  0  0  0  0
  5  4  1  0
  1  5  1  6
  6  4  1  0
  7  6  1  0
  8  6  1  0
  8  9  1  0
 10  8  1  0
 10 11  1  0
 12 10  1  0
 12  7  1  0
 14  1  2  0
 15  2  2  0
 16  3  2  0
 17 13  1  0
 18 17  1  0
 19  1  1  0
  2 20  1  1
 21  3  1  0
 22 17  2  0
 23  3  1  0
 23  2  1  0
 24  1  1  0
 24  2  1  0
 25  3  1  0
 26 22  1  0
 27 26  2  0
 28 27  1  0
 28 13  1  0
 29 28  2  0
 30 27  1  0
 31 30  2  0
 32 31  1  0
 32 26  1  0
 12 32  1  0
  4 33  1  0
  4 34  1  0
  6 35  1  6
  8 36  1  1
  9 37  1  0
 10 38  1  1
 11 39  1  0
 12 40  1  6
 13 41  1  0
 18 42  1  0
 18 43  1  0
 19 44  1  0
 20 45  1  0
 21 46  1  0
 23 47  1  0
 25 48  1  0
 31 49  1  0
M  END
