
     RDKit          3D

 99103  0  0  0  0  0  0  0  0999 V2000
   20.7488   24.6697   17.5538 N   0  0  0  0  0  0  0  0  0  0  0  0
   19.6180   24.9691   16.6995 C   0  0  1  0  0  0  0  0  0  0  0  0
   16.5744   23.0382   18.0184 C   0  0  2  0  0  0  0  0  0  0  0  0
   21.2602   25.5854   18.5148 C   0  0  0  0  0  0  0  0  0  0  0  0
   20.7796   26.7477   18.6085 O   0  0  0  0  0  0  0  0  0  0  0  0
   20.0874   25.1150   15.2608 C   0  0  0  0  0  0  0  0  0  0  0  0
   16.6403   22.5488   19.4842 C   0  0  0  0  0  0  0  0  0  0  0  0
   21.0015   26.2877   15.1681 C   0  0  0  0  0  0  0  0  0  0  0  0
   18.0599   22.3637   19.9764 C   0  0  0  0  0  0  0  0  0  0  0  0
   13.8662   18.0446   19.1546 C   0  0  0  0  0  0  0  0  0  0  0  0
   18.4445   22.7622   21.2665 C   0  0  0  0  0  0  0  0  0  0  0  0
   19.0125   21.7663   19.1379 C   0  0  0  0  0  0  0  0  0  0  0  0
   20.4677   27.5974   15.2564 N   0  0  0  0  0  0  0  0  0  0  0  0
   22.2448   26.1239   15.0720 O   0  0  0  0  0  0  0  0  0  0  0  0
   19.7605   22.5674   21.7017 C   0  0  0  0  0  0  0  0  0  0  0  0
   20.3241   21.5803   19.5740 C   0  0  0  0  0  0  0  0  0  0  0  0
   20.7038   21.9914   20.8495 C   0  0  0  0  0  0  0  0  0  0  0  0
   14.1097   22.6610   17.4800 C   0  0  0  0  0  0  0  0  0  0  0  0
   18.6418   23.8650   16.8494 C   0  0  0  0  0  0  0  0  0  0  0  0
   23.4601   25.9566   19.4593 N   0  0  0  0  0  0  0  0  0  0  0  0
   18.8072   22.7657   16.2531 O   0  0  0  0  0  0  0  0  0  0  0  0
   22.3743   25.1435   19.3568 C   0  0  0  0  0  0  0  0  0  0  0  0
   17.5945   24.0411   17.7868 N   0  0  0  0  0  0  0  0  0  0  0  0
   14.8565   24.6589   18.5840 O   0  0  0  0  0  0  0  0  0  0  0  0
   22.3627   23.9158   20.0293 C   0  0  0  0  0  0  0  0  0  0  0  0
   13.2676   20.7225   13.7133 C   0  0  2  0  0  0  0  0  0  0  0  0
   13.4336   18.9887   18.1246 N   0  0  0  0  0  0  0  0  0  0  0  0
   15.5450   19.6825   17.3603 O   0  0  0  0  0  0  0  0  0  0  0  0
   23.4733   23.5434   20.7912 C   0  0  0  0  0  0  0  0  0  0  0  0
   24.5696   24.4071   20.8971 C   0  0  0  0  0  0  0  0  0  0  0  0
   25.6856   24.0771   21.6751 C   0  0  0  0  0  0  0  0  0  0  0  0
   26.7554   24.9682   21.7768 C   0  0  0  0  0  0  0  0  0  0  0  0
   26.7207   26.1835   21.0892 C   0  0  0  0  0  0  0  0  0  0  0  0
   13.8097   22.1634   13.7487 C   0  0  2  0  0  0  0  0  0  0  0  0
   25.6179   26.5144   20.2998 C   0  0  0  0  0  0  0  0  0  0  0  0
   24.5415   25.6315   20.2048 C   0  0  0  0  0  0  0  0  0  0  0  0
   15.2323   23.6880   17.6383 C   0  0  1  0  0  0  0  0  0  0  0  0
   12.6107   17.3988   19.7615 C   0  0  0  0  0  0  0  0  0  0  0  0
   14.2437   21.9601   16.1813 N   0  0  0  0  0  0  0  0  0  0  0  0
   13.6468   20.6041   16.2154 C   0  0  1  0  0  0  0  0  0  0  0  0
   14.6341   18.7857   20.2592 C   0  0  0  0  0  0  0  0  0  0  0  0
   13.8352   19.8865   14.8708 C   0  0  0  0  0  0  0  0  0  0  0  0
   14.7318   16.9386   18.5315 C   0  0  0  0  0  0  0  0  0  0  0  0
   13.5464   20.0804   12.3430 C   0  0  0  0  0  0  0  0  0  0  0  0
   15.0180   20.1954   11.9191 C   0  0  0  0  0  0  0  0  0  0  0  0
   15.4981   21.6464   11.9507 C   0  0  0  0  0  0  0  0  0  0  0  0
   15.2931   22.2440   13.3412 C   0  0  0  0  0  0  0  0  0  0  0  0
   13.5795   22.7661   15.1304 C   0  0  0  0  0  0  0  0  0  0  0  0
   14.2883   19.7431   17.2660 C   0  0  0  0  0  0  0  0  0  0  0  0
   21.2084   23.7389   17.4253 H   0  0  0  0  0  0  0  0  0  0  0  0
   19.1248   25.9187   17.0060 H   0  0  0  0  0  0  0  0  0  0  0  0
   16.7421   22.1595   17.3577 H   0  0  0  0  0  0  0  0  0  0  0  0
   19.2151   25.2800   14.5910 H   0  0  0  0  0  0  0  0  0  0  0  0
   20.6166   24.1962   14.9223 H   0  0  0  0  0  0  0  0  0  0  0  0
   16.1235   23.2628   20.1605 H   0  0  0  0  0  0  0  0  0  0  0  0
   16.0951   21.5862   19.5756 H   0  0  0  0  0  0  0  0  0  0  0  0
   17.7228   23.2147   21.9353 H   0  0  0  0  0  0  0  0  0  0  0  0
   18.7401   21.4441   18.1405 H   0  0  0  0  0  0  0  0  0  0  0  0
   21.1018   28.4266   15.2325 H   0  0  0  0  0  0  0  0  0  0  0  0
   19.4380   27.7531   15.3346 H   0  0  0  0  0  0  0  0  0  0  0  0
   20.0502   22.8736   22.6985 H   0  0  0  0  0  0  0  0  0  0  0  0
   21.0521   21.1269   18.9145 H   0  0  0  0  0  0  0  0  0  0  0  0
   21.7227   21.8462   21.1851 H   0  0  0  0  0  0  0  0  0  0  0  0
   14.1325   21.9735   18.3496 H   0  0  0  0  0  0  0  0  0  0  0  0
   13.1230   23.1747   17.5536 H   0  0  0  0  0  0  0  0  0  0  0  0
   17.5620   24.9214   18.3508 H   0  0  0  0  0  0  0  0  0  0  0  0
   15.2009   25.5359   18.2707 H   0  0  0  0  0  0  0  0  0  0  0  0
   21.5145   23.2471   19.9529 H   0  0  0  0  0  0  0  0  0  0  0  0
   12.1616   20.7633   13.8401 H   0  0  0  0  0  0  0  0  0  0  0  0
   12.4047   19.1106   17.9784 H   0  0  0  0  0  0  0  0  0  0  0  0
   23.4682   22.5907   21.3070 H   0  0  0  0  0  0  0  0  0  0  0  0
   25.7256   23.1370   22.2122 H   0  0  0  0  0  0  0  0  0  0  0  0
   27.6143   24.7154   22.3850 H   0  0  0  0  0  0  0  0  0  0  0  0
   27.5533   26.8706   21.1670 H   0  0  0  0  0  0  0  0  0  0  0  0
   13.2236   22.7708   13.0213 H   0  0  0  0  0  0  0  0  0  0  0  0
   25.6000   27.4589   19.7701 H   0  0  0  0  0  0  0  0  0  0  0  0
   15.3844   24.1921   16.6572 H   0  0  0  0  0  0  0  0  0  0  0  0
   11.8195   18.1617   19.9294 H   0  0  0  0  0  0  0  0  0  0  0  0
   12.2019   16.6167   19.0855 H   0  0  0  0  0  0  0  0  0  0  0  0
   12.8491   16.9221   20.7373 H   0  0  0  0  0  0  0  0  0  0  0  0
   12.5536   20.6900   16.4166 H   0  0  0  0  0  0  0  0  0  0  0  0
   15.5944   19.1882   19.8764 H   0  0  0  0  0  0  0  0  0  0  0  0
   14.0299   19.6329   20.6494 H   0  0  0  0  0  0  0  0  0  0  0  0
   14.8680   18.0990   21.1012 H   0  0  0  0  0  0  0  0  0  0  0  0
   14.9153   19.6837   14.7115 H   0  0  0  0  0  0  0  0  0  0  0  0
   13.3098   18.9057   14.8992 H   0  0  0  0  0  0  0  0  0  0  0  0
   14.8653   17.1191   17.4430 H   0  0  0  0  0  0  0  0  0  0  0  0
   14.2528   15.9449   18.6681 H   0  0  0  0  0  0  0  0  0  0  0  0
   15.7341   16.8903   19.0036 H   0  0  0  0  0  0  0  0  0  0  0  0
   12.9141   20.5801   11.5760 H   0  0  0  0  0  0  0  0  0  0  0  0
   13.2518   19.0085   12.3606 H   0  0  0  0  0  0  0  0  0  0  0  0
   15.1235   19.8059   10.8836 H   0  0  0  0  0  0  0  0  0  0  0  0
   15.6628   19.5675   12.5696 H   0  0  0  0  0  0  0  0  0  0  0  0
   16.5778   21.6823   11.6901 H   0  0  0  0  0  0  0  0  0  0  0  0
   14.9415   22.2444   11.1957 H   0  0  0  0  0  0  0  0  0  0  0  0
   15.6136   23.3085   13.3194 H   0  0  0  0  0  0  0  0  0  0  0  0
   15.9406   21.7167   14.0752 H   0  0  0  0  0  0  0  0  0  0  0  0
   13.9516   23.8108   15.1118 H   0  0  0  0  0  0  0  0  0  0  0  0
   12.4819   22.8285   15.3180 H   0  0  0  0  0  0  0  0  0  0  0  0
  2  1  1  0
  4  1  1  0
  5  4  2  0
  2  6  1  0
  3  7  1  0
  8  6  1  0
  9  7  1  0
 11  9  2  0
 12  9  1  0
 13  8  1  0
 14  8  2  0
 15 11  1  0
 16 12  2  0
 17 16  1  0
 17 15  2  0
 19  2  1  0
 21 19  2  0
 22  4  1  0
 22 20  2  0
 23 19  1  0
 23  3  1  0
 25 22  1  0
 27 10  1  0
 29 25  2  0
 30 29  1  0
 31 30  2  0
 32 31  1  0
 33 32  2  0
 34 26  1  0
 35 33  1  0
 36 35  2  0
 36 30  1  0
 36 20  1  0
 37 24  1  0
 37 18  1  0
 37  3  1  0
 10 38  1  0
 39 18  1  0
 40 39  1  0
 41 10  1  0
 26 42  1  0
 42 40  1  0
 43 10  1  0
 44 26  1  0
 45 44  1  0
 46 45  1  0
 47 46  1  0
 34 47  1  0
 48 34  1  0
 48 39  1  0
 40 49  1  0
 49 28  2  0
 49 27  1  0
  1 50  1  0
  2 51  1  1
  3 52  1  6
  6 53  1  0
  6 54  1  0
  7 55  1  0
  7 56  1  0
 11 57  1  0
 12 58  1  0
 13 59  1  0
 13 60  1  0
 15 61  1  0
 16 62  1  0
 17 63  1  0
 18 64  1  0
 18 65  1  0
 23 66  1  0
 24 67  1  0
 25 68  1  0
 26 69  1  1
 27 70  1  0
 29 71  1  0
 31 72  1  0
 32 73  1  0
 33 74  1  0
 34 75  1  6
 35 76  1  0
 37 77  1  6
 38 78  1  0
 38 79  1  0
 38 80  1  0
 40 81  1  1
 41 82  1  0
 41 83  1  0
 41 84  1  0
 42 85  1  0
 42 86  1  0
 43 87  1  0
 43 88  1  0
 43 89  1  0
 44 90  1  0
 44 91  1  0
 45 92  1  0
 45 93  1  0
 46 94  1  0
 46 95  1  0
 47 96  1  0
 47 97  1  0
 48 98  1  0
 48 99  1  0
M  END
