
     RDKit          3D

 16 15  0  0  0  0  0  0  0  0999 V2000
   14.3968   27.9253   42.0923 C   0  0  0  0  0  0  0  0  0  0  0  0
   15.0367   27.1824   41.3025 O   0  0  0  0  0  0  0  0  0  0  0  0
   12.9429   27.8284   42.1931 C   0  0  0  0  0  0  0  0  0  0  0  0
   15.0697   28.8505   42.8687 O   0  0  0  0  0  0  0  0  0  0  0  0
   12.1181   27.6494   40.9490 C   0  0  0  0  0  0  0  0  0  0  0  0
   10.8943   24.4721   42.2224 O   0  0  0  0  0  0  0  0  0  0  0  0
   11.0454   26.5677   41.1117 C   0  0  0  0  0  0  0  0  0  0  0  0
   12.0215   26.0939   43.3742 O   0  0  0  0  0  0  0  0  0  0  0  0
   11.3239   25.6530   42.2612 C   0  0  0  0  0  0  0  0  0  0  0  0
   12.4004   27.8996   43.3295 O   0  0  0  0  0  0  0  0  0  0  0  0
   14.7706   29.8179   42.9015 H   0  0  0  0  0  0  0  0  0  0  0  0
   11.6316   28.6153   40.6913 H   0  0  0  0  0  0  0  0  0  0  0  0
   12.8062   27.3663   40.1223 H   0  0  0  0  0  0  0  0  0  0  0  0
   10.9800   25.9668   40.1786 H   0  0  0  0  0  0  0  0  0  0  0  0
   10.0580   27.0461   41.2935 H   0  0  0  0  0  0  0  0  0  0  0  0
   12.2003   25.4744   44.1555 H   0  0  0  0  0  0  0  0  0  0  0  0
  2  1  2  0
  3  1  1  0
  4  1  1  0
  5  3  1  0
  7  5  1  0
  9  6  2  0
  9  8  1  0
  9  7  1  0
 10  3  2  0
  4 11  1  0
  5 12  1  0
  5 13  1  0
  7 14  1  0
  7 15  1  0
  8 16  1  0
M  END
