
     RDKit          3D

 16 15  0  0  0  0  0  0  0  0999 V2000
   14.7107   26.6611   42.4800 C   0  0  0  0  0  0  0  0  0  0  0  0
   15.3506   25.9182   41.6902 O   0  0  0  0  0  0  0  0  0  0  0  0
   13.2567   26.5642   42.5808 C   0  0  0  0  0  0  0  0  0  0  0  0
   15.3836   27.5863   43.2564 O   0  0  0  0  0  0  0  0  0  0  0  0
   12.5253   25.4910   41.8235 C   0  0  0  0  0  0  0  0  0  0  0  0
   11.0146   24.4126   39.8438 O   0  0  0  0  0  0  0  0  0  0  0  0
   11.0070   25.6946   41.8448 C   0  0  0  0  0  0  0  0  0  0  0  0
    8.9447   25.0684   40.5599 O   0  0  0  0  0  0  0  0  0  0  0  0
   10.3220   25.0170   40.7015 C   0  0  0  0  0  0  0  0  0  0  0  0
   12.6354   27.3897   43.3041 O   0  0  0  0  0  0  0  0  0  0  0  0
   15.2057   28.5785   43.1546 H   0  0  0  0  0  0  0  0  0  0  0  0
   12.8812   25.4802   40.7702 H   0  0  0  0  0  0  0  0  0  0  0  0
   12.7739   24.5137   42.2927 H   0  0  0  0  0  0  0  0  0  0  0  0
   10.7780   26.7820   41.8108 H   0  0  0  0  0  0  0  0  0  0  0  0
   10.5876   25.2748   42.7854 H   0  0  0  0  0  0  0  0  0  0  0  0
    8.4845   24.6162   39.7789 H   0  0  0  0  0  0  0  0  0  0  0  0
  2  1  2  0
  3  1  1  0
  4  1  1  0
  5  3  1  0
  7  5  1  0
  9  6  2  0
  9  8  1  0
  9  7  1  0
 10  3  2  0
  4 11  1  0
  5 12  1  0
  5 13  1  0
  7 14  1  0
  7 15  1  0
  8 16  1  0
M  END
