
     RDKit          3D

 16 15  0  0  0  0  0  0  0  0999 V2000
    5.2466   35.5797   12.2129 C   0  0  0  0  0  0  0  0  0  0  0  0
    4.4731   34.6280   12.4988 O   0  0  0  0  0  0  0  0  0  0  0  0
    6.6881   35.3608   12.0693 C   0  0  0  0  0  0  0  0  0  0  0  0
    4.7339   36.8517   12.0331 O   0  0  0  0  0  0  0  0  0  0  0  0
    7.2518   33.9681   12.0337 C   0  0  0  0  0  0  0  0  0  0  0  0
    9.4460   33.6086   10.3186 O   0  0  0  0  0  0  0  0  0  0  0  0
    8.6561   33.8861   12.6518 C   0  0  0  0  0  0  0  0  0  0  0  0
   10.7399   32.8499   12.0440 O   0  0  0  0  0  0  0  0  0  0  0  0
    9.6812   33.4199   11.6676 C   0  0  0  0  0  0  0  0  0  0  0  0
    7.4493   36.3610   11.9921 O   0  0  0  0  0  0  0  0  0  0  0  0
    5.1878   37.6586   12.4445 H   0  0  0  0  0  0  0  0  0  0  0  0
    6.5652   33.2877   12.5829 H   0  0  0  0  0  0  0  0  0  0  0  0
    7.2973   33.6441   10.9706 H   0  0  0  0  0  0  0  0  0  0  0  0
   10.1169   33.2999    9.6252 H   0  0  0  0  0  0  0  0  0  0  0  0
    8.9639   34.8908   13.0149 H   0  0  0  0  0  0  0  0  0  0  0  0
    8.6434   33.1857   13.5148 H   0  0  0  0  0  0  0  0  0  0  0  0
  2  1  2  0
  3  1  1  0
  4  1  1  0
  5  3  1  0
  7  5  1  0
  9  8  2  0
  9  7  1  0
  9  6  1  0
 10  3  2  0
  4 11  1  0
  5 12  1  0
  5 13  1  0
  6 14  1  0
  7 15  1  0
  7 16  1  0
M  END
