
     RDKit          3D

 66 67  0  0  0  0  0  0  0  0999 V2000
   35.5943   13.1055   61.3717 P   0  0  1  0  0  0  0  0  0  0  0  0
   37.0685   11.6489   59.8232 C   0  0  2  0  0  0  0  0  0  0  0  0
   37.6509   10.8684   60.9734 C   0  0  0  0  0  0  0  0  0  0  0  0
   38.0462   11.6859   58.6569 C   0  0  0  0  0  0  0  0  0  0  0  0
   38.2862   12.8840   57.9443 C   0  0  0  0  0  0  0  0  0  0  0  0
   39.1701   12.9086   56.8627 C   0  0  0  0  0  0  0  0  0  0  0  0
   39.8138   11.7422   56.4606 C   0  0  0  0  0  0  0  0  0  0  0  0
   39.5743   10.5484   57.1409 C   0  0  0  0  0  0  0  0  0  0  0  0
   38.6852   10.5140   58.2224 C   0  0  0  0  0  0  0  0  0  0  0  0
   40.2351    9.3645   56.7224 N   0  0  0  0  0  0  0  0  0  0  0  0
   41.3580    9.4077   55.8444 C   0  0  0  0  0  0  0  0  0  0  0  0
   42.1570   10.4232   55.8763 N   0  0  0  0  0  0  0  0  0  0  0  0
   41.6473    8.3182   54.9695 N   0  0  0  0  0  0  0  0  0  0  0  0
   38.3975   11.4317   61.8189 O   0  0  0  0  0  0  0  0  0  0  0  0
   37.3805    9.5154   61.0815 O   0  0  0  0  0  0  0  0  0  0  0  0
   36.8412   12.9732   60.2362 O   0  0  0  0  0  0  0  0  0  0  0  0
   35.7667   14.7923   61.9863 C   0  0  2  0  0  0  0  0  0  0  0  0
   35.7715   15.7916   60.8194 C   0  0  0  0  0  0  0  0  0  0  0  0
   35.1341   17.1411   61.1793 C   0  0  0  0  0  0  0  0  0  0  0  0
   35.5151   17.6185   62.5889 C   0  0  0  0  0  0  0  0  0  0  0  0
   36.8178   18.4263   62.5903 C   0  0  0  0  0  0  0  0  0  0  0  0
   36.7183   19.7081   61.7640 C   0  0  0  0  0  0  0  0  0  0  0  0
   37.0354   14.8685   62.6998 N   0  0  0  0  0  0  0  0  0  0  0  0
   37.0907   15.0492   64.1003 C   0  0  0  0  0  0  0  0  0  0  0  0
   37.1453   16.2102   64.5920 O   0  0  0  0  0  0  0  0  0  0  0  0
   37.0920   13.9429   64.9354 O   0  0  0  0  0  0  0  0  0  0  0  0
   37.9294   14.0016   66.0767 C   0  0  0  0  0  0  0  0  0  0  0  0
   34.2425   12.9065   60.7303 O   0  0  0  0  0  0  0  0  0  0  0  0
   35.8263   12.0378   62.6472 O   0  0  0  0  0  0  0  0  0  0  0  0
   37.9161   12.7810   66.9053 C   0  0  0  0  0  0  0  0  0  0  0  0
   37.8578   12.8117   68.3060 C   0  0  0  0  0  0  0  0  0  0  0  0
   37.8117   11.6113   69.0190 C   0  0  0  0  0  0  0  0  0  0  0  0
   37.8128   10.3889   68.3375 C   0  0  0  0  0  0  0  0  0  0  0  0
   37.8585   10.3621   66.9416 C   0  0  0  0  0  0  0  0  0  0  0  0
   37.9068   11.5548   66.2270 C   0  0  0  0  0  0  0  0  0  0  0  0
   36.1363   11.1560   59.4621 H   0  0  0  0  0  0  0  0  0  0  0  0
   37.7902   13.8077   58.2119 H   0  0  0  0  0  0  0  0  0  0  0  0
   39.3489   13.8346   56.3314 H   0  0  0  0  0  0  0  0  0  0  0  0
   40.4984   11.7677   55.6219 H   0  0  0  0  0  0  0  0  0  0  0  0
   38.4895    9.5685   58.7111 H   0  0  0  0  0  0  0  0  0  0  0  0
   39.7776    8.4445   56.9157 H   0  0  0  0  0  0  0  0  0  0  0  0
   41.9932   11.2334   56.5150 H   0  0  0  0  0  0  0  0  0  0  0  0
   41.1450    7.4062   55.0322 H   0  0  0  0  0  0  0  0  0  0  0  0
   42.4416    8.3887   54.2952 H   0  0  0  0  0  0  0  0  0  0  0  0
   38.0587    8.8246   60.7834 H   0  0  0  0  0  0  0  0  0  0  0  0
   34.9027   15.0000   62.6514 H   0  0  0  0  0  0  0  0  0  0  0  0
   35.2359   15.3482   59.9515 H   0  0  0  0  0  0  0  0  0  0  0  0
   36.8143   15.9988   60.4961 H   0  0  0  0  0  0  0  0  0  0  0  0
   35.4046   17.9120   60.4259 H   0  0  0  0  0  0  0  0  0  0  0  0
   34.0330   17.0046   61.1274 H   0  0  0  0  0  0  0  0  0  0  0  0
   35.6749   16.7491   63.2586 H   0  0  0  0  0  0  0  0  0  0  0  0
   34.6907   18.2320   63.0139 H   0  0  0  0  0  0  0  0  0  0  0  0
   37.6520   17.8011   62.2035 H   0  0  0  0  0  0  0  0  0  0  0  0
   37.0602   18.7003   63.6400 H   0  0  0  0  0  0  0  0  0  0  0  0
   37.6158   20.3350   61.9497 H   0  0  0  0  0  0  0  0  0  0  0  0
   35.8170   20.2900   62.0519 H   0  0  0  0  0  0  0  0  0  0  0  0
   36.6841   19.4774   60.6790 H   0  0  0  0  0  0  0  0  0  0  0  0
   37.9239   14.6543   62.1917 H   0  0  0  0  0  0  0  0  0  0  0  0
   37.6118   14.8589   66.7131 H   0  0  0  0  0  0  0  0  0  0  0  0
   38.9801   14.1759   65.7515 H   0  0  0  0  0  0  0  0  0  0  0  0
   36.7441   12.2111   62.9741 H   0  0  0  0  0  0  0  0  0  0  0  0
   37.8455   13.7493   68.8469 H   0  0  0  0  0  0  0  0  0  0  0  0
   37.7704   11.6265   70.1005 H   0  0  0  0  0  0  0  0  0  0  0  0
   37.7747    9.4613   68.8938 H   0  0  0  0  0  0  0  0  0  0  0  0
   37.8541    9.4152   66.4172 H   0  0  0  0  0  0  0  0  0  0  0  0
   37.9347   11.5199   65.1441 H   0  0  0  0  0  0  0  0  0  0  0  0
  3  2  1  0
  4  2  1  0
  5  4  2  0
  6  5  1  0
  7  6  2  0
  8  7  1  0
  9  4  1  0
  9  8  2  0
 10  8  1  0
 11 10  1  0
 12 11  2  3
 13 11  1  0
 14  3  2  0
 15  3  1  0
  2 16  1  0
  1 16  1  6
 17  1  1  0
 17 18  1  0
 19 18  1  0
 20 19  1  0
 21 20  1  0
 22 21  1  0
 23 17  1  0
 24 23  1  0
 25 24  2  0
 26 24  1  0
 27 26  1  0
 28  1  2  0
 29  1  1  0
 30 27  1  0
 31 30  2  0
 32 31  1  0
 33 32  2  0
 34 33  1  0
 35 30  1  0
 35 34  2  0
  2 36  1  6
  5 37  1  0
  6 38  1  0
  7 39  1  0
  9 40  1  0
 10 41  1  0
 12 42  1  0
 13 43  1  0
 13 44  1  0
 15 45  1  0
 17 46  1  1
 18 47  1  0
 18 48  1  0
 19 49  1  0
 19 50  1  0
 20 51  1  0
 20 52  1  0
 21 53  1  0
 21 54  1  0
 22 55  1  0
 22 56  1  0
 22 57  1  0
 23 58  1  0
 27 59  1  0
 27 60  1  0
 29 61  1  0
 31 62  1  0
 32 63  1  0
 33 64  1  0
 34 65  1  0
 35 66  1  0
M  END
