
     RDKit          3D

 31 33  0  0  0  0  0  0  0  0999 V2000
   15.8714   31.4358   66.0538 C   0  0  0  0  0  0  0  0  0  0  0  0
   15.6058   30.3393   65.0353 C   0  0  1  0  0  0  0  0  0  0  0  0
   15.2217   30.9253   63.8224 O   0  0  0  0  0  0  0  0  0  0  0  0
   16.8577   29.5142   64.7707 C   0  0  1  0  0  0  0  0  0  0  0  0
   16.9247   28.4063   65.6327 O   0  0  0  0  0  0  0  0  0  0  0  0
   16.6812   29.1087   63.3192 C   0  0  1  0  0  0  0  0  0  0  0  0
   16.4415   27.7287   63.1757 O   0  0  0  0  0  0  0  0  0  0  0  0
   15.4816   29.9522   62.8466 C   0  0  2  0  0  0  0  0  0  0  0  0
   13.6904   31.1061   58.1663 N   0  0  0  0  0  0  0  0  0  0  0  0
   13.0581   30.4377   59.1842 C   0  0  0  0  0  0  0  0  0  0  0  0
   13.6968   30.2289   60.3729 N   0  0  0  0  0  0  0  0  0  0  0  0
   14.9586   30.7045   60.5098 C   0  0  0  0  0  0  0  0  0  0  0  0
   15.5976   31.3748   59.5281 C   0  0  0  0  0  0  0  0  0  0  0  0
   14.9635   31.5853   58.3121 C   0  0  0  0  0  0  0  0  0  0  0  0
   15.6070   32.2754   57.2473 N   0  0  0  0  0  0  0  0  0  0  0  0
   16.8256   31.7493   59.9347 N   0  0  0  0  0  0  0  0  0  0  0  0
   16.8866   31.2679   61.2049 C   0  0  0  0  0  0  0  0  0  0  0  0
   15.7602   30.6089   61.5751 N   0  0  0  0  0  0  0  0  0  0  0  0
   15.4312   31.0050   67.2803 F   0  0  0  0  0  0  0  0  0  0  0  0
   16.9389   31.7343   66.1228 H   0  0  0  0  0  0  0  0  0  0  0  0
   15.2878   32.3459   65.7963 H   0  0  0  0  0  0  0  0  0  0  0  0
   14.7727   29.6864   65.3907 H   0  0  0  0  0  0  0  0  0  0  0  0
   17.7910   30.1210   64.8488 H   0  0  0  0  0  0  0  0  0  0  0  0
   17.8766   28.1258   65.6556 H   0  0  0  0  0  0  0  0  0  0  0  0
   17.6058   29.3570   62.7534 H   0  0  0  0  0  0  0  0  0  0  0  0
   16.2146   27.3567   64.0686 H   0  0  0  0  0  0  0  0  0  0  0  0
   14.5727   29.3158   62.7425 H   0  0  0  0  0  0  0  0  0  0  0  0
   12.0510   30.0705   59.0428 H   0  0  0  0  0  0  0  0  0  0  0  0
   15.2449   33.1922   56.9023 H   0  0  0  0  0  0  0  0  0  0  0  0
   16.4560   31.8681   56.7963 H   0  0  0  0  0  0  0  0  0  0  0  0
   17.7495   31.3928   61.8464 H   0  0  0  0  0  0  0  0  0  0  0  0
  2  1  1  0
  3  2  1  0
  4  2  1  0
  4  5  1  0
  6  4  1  0
  6  7  1  0
  8  3  1  0
  8  6  1  0
 10  9  2  0
 11 10  1  0
 12 11  2  0
 13 12  1  0
 14 13  2  0
 14  9  1  0
 15 14  1  0
 16 13  1  0
 17 16  2  0
 18 12  1  0
  8 18  1  0
 18 17  1  0
 19  1  1  0
  1 20  1  0
  1 21  1  0
  2 22  1  1
  4 23  1  6
  5 24  1  0
  6 25  1  6
  7 26  1  0
  8 27  1  6
 10 28  1  0
 15 29  1  0
 15 30  1  0
 17 31  1  0
M  END
