
     RDKit          3D

 39 42  0  0  0  0  0  0  0  0999 V2000
    0.7092   13.0319   30.2018 C   0  0  0  0  0  0  0  0  0  0  0  0
    1.9996   13.5245   30.0543 C   0  0  0  0  0  0  0  0  0  0  0  0
    0.2286   11.6535   30.4120 C   0  0  0  0  0  0  0  0  0  0  0  0
   -0.1104   14.0582   30.1670 O   0  0  0  0  0  0  0  0  0  0  0  0
    3.2795   12.7794   30.0325 C   0  0  0  0  0  0  0  0  0  0  0  0
    1.9314   14.8674   29.9477 N   0  0  0  0  0  0  0  0  0  0  0  0
   -1.1554   11.4154   30.2978 C   0  0  0  0  0  0  0  0  0  0  0  0
    1.0728   10.5948   30.8284 C   0  0  0  0  0  0  0  0  0  0  0  0
    0.6137   15.1404   30.0162 C   0  0  0  0  0  0  0  0  0  0  0  0
    4.1932   12.8597   31.1011 C   0  0  0  0  0  0  0  0  0  0  0  0
    3.5810   11.9644   28.9305 C   0  0  0  0  0  0  0  0  0  0  0  0
   -1.6283   10.1747   30.5653 N   0  0  0  0  0  0  0  0  0  0  0  0
    0.5366    9.3227   31.0888 C   0  0  0  0  0  0  0  0  0  0  0  0
    5.3944   12.1362   31.0563 C   0  0  0  0  0  0  0  0  0  0  0  0
    4.7823   11.2519   28.8862 C   0  0  0  0  0  0  0  0  0  0  0  0
   -0.8446    9.1570   30.9408 C   0  0  0  0  0  0  0  0  0  0  0  0
   -2.8726    9.6539   30.5369 C   0  0  0  0  0  0  0  0  0  0  0  0
    5.6863   11.3340   29.9465 C   0  0  0  0  0  0  0  0  0  0  0  0
   -1.5621    8.0387   31.1547 N   0  0  0  0  0  0  0  0  0  0  0  0
   -2.8336    8.3540   30.9118 N   0  0  0  0  0  0  0  0  0  0  0  0
   -4.1421   10.4225   30.2150 C   0  0  0  0  0  0  0  0  0  0  0  0
   -4.2115   11.7564   30.9700 C   0  0  0  0  0  0  0  0  0  0  0  0
   -4.2422   10.6604   28.7064 C   0  0  0  0  0  0  0  0  0  0  0  0
    6.8513   10.6451   29.8814 F   0  0  0  0  0  0  0  0  0  0  0  0
   -1.8344   12.2073   30.0078 H   0  0  0  0  0  0  0  0  0  0  0  0
    2.1275   10.7473   30.9949 H   0  0  0  0  0  0  0  0  0  0  0  0
    0.2029   16.1392   29.9566 H   0  0  0  0  0  0  0  0  0  0  0  0
    3.9743   13.4815   31.9603 H   0  0  0  0  0  0  0  0  0  0  0  0
    2.8884   11.8890   28.1010 H   0  0  0  0  0  0  0  0  0  0  0  0
    1.1678    8.5052   31.4123 H   0  0  0  0  0  0  0  0  0  0  0  0
    6.0967   12.2033   31.8771 H   0  0  0  0  0  0  0  0  0  0  0  0
    5.0099   10.6335   28.0274 H   0  0  0  0  0  0  0  0  0  0  0  0
   -5.0189    9.8192   30.5332 H   0  0  0  0  0  0  0  0  0  0  0  0
   -4.2906   11.5743   32.0631 H   0  0  0  0  0  0  0  0  0  0  0  0
   -5.0913   12.3508   30.6417 H   0  0  0  0  0  0  0  0  0  0  0  0
   -3.2892   12.3466   30.7819 H   0  0  0  0  0  0  0  0  0  0  0  0
   -4.1624   11.7455   28.4822 H   0  0  0  0  0  0  0  0  0  0  0  0
   -5.2234   10.3004   28.3289 H   0  0  0  0  0  0  0  0  0  0  0  0
   -3.4323   10.1206   28.1698 H   0  0  0  0  0  0  0  0  0  0  0  0
  2  1  2  0
  3  1  1  0
  4  1  1  0
  5  2  1  0
  6  2  1  0
  7  3  2  0
  8  3  1  0
  9  6  2  0
  9  4  1  0
 10  5  2  0
 11  5  1  0
 12  7  1  0
 13  8  2  0
 14 10  1  0
 15 11  2  0
 16 13  1  0
 16 12  1  0
 17 12  1  0
 18 15  1  0
 18 14  2  0
 19 16  2  0
 20 19  1  0
 20 17  2  0
 21 17  1  0
 21 22  1  0
 23 21  1  0
 24 18  1  0
  7 25  1  0
  8 26  1  0
  9 27  1  0
 10 28  1  0
 11 29  1  0
 13 30  1  0
 14 31  1  0
 15 32  1  0
 21 33  1  0
 22 34  1  0
 22 35  1  0
 22 36  1  0
 23 37  1  0
 23 38  1  0
 23 39  1  0
M  END
