
     RDKit          3D

 39 42  0  0  0  0  0  0  0  0999 V2000
    1.8334   14.0887   31.2115 C   0  0  0  0  0  0  0  0  0  0  0  0
    3.1238   14.5813   31.0640 C   0  0  0  0  0  0  0  0  0  0  0  0
    1.3528   12.7103   31.4217 C   0  0  0  0  0  0  0  0  0  0  0  0
    1.0138   15.1151   31.1767 O   0  0  0  0  0  0  0  0  0  0  0  0
    4.4037   13.8362   31.0422 C   0  0  0  0  0  0  0  0  0  0  0  0
    3.0556   15.9243   30.9574 N   0  0  0  0  0  0  0  0  0  0  0  0
   -0.0293   12.4692   31.2919 C   0  0  0  0  0  0  0  0  0  0  0  0
    2.1938   11.6550   31.8527 C   0  0  0  0  0  0  0  0  0  0  0  0
    1.7380   16.1972   31.0260 C   0  0  0  0  0  0  0  0  0  0  0  0
    4.9514   13.2848   32.2166 C   0  0  0  0  0  0  0  0  0  0  0  0
    5.0769   13.6631   29.8231 C   0  0  0  0  0  0  0  0  0  0  0  0
   -0.5032   11.2288   31.5589 N   0  0  0  0  0  0  0  0  0  0  0  0
    1.6568   10.3830   32.1119 C   0  0  0  0  0  0  0  0  0  0  0  0
    6.1616   12.5770   32.1642 C   0  0  0  0  0  0  0  0  0  0  0  0
    6.2863   12.9646   29.7766 C   0  0  0  0  0  0  0  0  0  0  0  0
    0.2779   10.2140   31.9481 C   0  0  0  0  0  0  0  0  0  0  0  0
   -1.7461   10.7055   31.5178 C   0  0  0  0  0  0  0  0  0  0  0  0
    6.8271   12.4197   30.9423 C   0  0  0  0  0  0  0  0  0  0  0  0
   -0.4401    9.0953   32.1581 N   0  0  0  0  0  0  0  0  0  0  0  0
   -1.7092    9.4073   31.8986 N   0  0  0  0  0  0  0  0  0  0  0  0
   -3.0130   11.4704   31.1774 C   0  0  0  0  0  0  0  0  0  0  0  0
   -3.5118   11.1519   29.7618 C   0  0  0  0  0  0  0  0  0  0  0  0
   -4.1033   11.1625   32.2064 C   0  0  0  0  0  0  0  0  0  0  0  0
    8.0063   11.7551   30.8803 F   0  0  0  0  0  0  0  0  0  0  0  0
   -0.7062   13.2586   30.9905 H   0  0  0  0  0  0  0  0  0  0  0  0
    3.2463   11.8100   32.0312 H   0  0  0  0  0  0  0  0  0  0  0  0
    1.3272   17.1960   30.9664 H   0  0  0  0  0  0  0  0  0  0  0  0
    4.4429   13.4065   33.1649 H   0  0  0  0  0  0  0  0  0  0  0  0
    4.6686   14.0784   28.9097 H   0  0  0  0  0  0  0  0  0  0  0  0
    2.2856    9.5680   32.4464 H   0  0  0  0  0  0  0  0  0  0  0  0
    6.5824   12.1579   33.0690 H   0  0  0  0  0  0  0  0  0  0  0  0
    6.8027   12.8448   28.8328 H   0  0  0  0  0  0  0  0  0  0  0  0
   -2.7965   12.5594   31.2119 H   0  0  0  0  0  0  0  0  0  0  0  0
   -4.6171   11.2533   29.7132 H   0  0  0  0  0  0  0  0  0  0  0  0
   -3.2342   10.1165   29.4687 H   0  0  0  0  0  0  0  0  0  0  0  0
   -3.0654   11.8628   29.0340 H   0  0  0  0  0  0  0  0  0  0  0  0
   -3.6794   10.5829   33.0541 H   0  0  0  0  0  0  0  0  0  0  0  0
   -4.9068   10.5539   31.7386 H   0  0  0  0  0  0  0  0  0  0  0  0
   -4.5485   12.1023   32.5988 H   0  0  0  0  0  0  0  0  0  0  0  0
  2  1  2  0
  3  1  1  0
  4  1  1  0
  5  2  1  0
  6  2  1  0
  7  3  2  0
  8  3  1  0
  9  6  2  0
  9  4  1  0
 10  5  2  0
 11  5  1  0
 12  7  1  0
 13  8  2  0
 14 10  1  0
 15 11  2  0
 16 13  1  0
 16 12  1  0
 17 12  1  0
 18 15  1  0
 18 14  2  0
 19 16  2  0
 20 19  1  0
 20 17  2  0
 21 17  1  0
 21 22  1  0
 23 21  1  0
 24 18  1  0
  7 25  1  0
  8 26  1  0
  9 27  1  0
 10 28  1  0
 11 29  1  0
 13 30  1  0
 14 31  1  0
 15 32  1  0
 21 33  1  0
 22 34  1  0
 22 35  1  0
 22 36  1  0
 23 37  1  0
 23 38  1  0
 23 39  1  0
M  END
