
     RDKit          3D

 49 51  0  0  0  0  0  0  0  0999 V2000
  -14.0614   11.6708  -20.7015 P   0  0  2  0  0  0  0  0  0  0  0  0
  -12.1717    9.6708  -20.3228 P   0  0  1  0  0  0  0  0  0  0  0  0
  -12.1807    7.3794  -22.0765 P   0  0  0  0  0  0  0  0  0  0  0  0
  -15.4531   11.6862  -18.5884 C   0  0  0  0  0  0  0  0  0  0  0  0
  -15.4023   12.2428  -19.8799 O   0  0  0  0  0  0  0  0  0  0  0  0
  -16.8101   12.0629  -17.9918 C   0  0  1  0  0  0  0  0  0  0  0  0
  -16.6570   12.3534  -16.6113 O   0  0  0  0  0  0  0  0  0  0  0  0
  -17.3990   13.2932  -18.6978 C   0  0  1  0  0  0  0  0  0  0  0  0
  -18.7912   13.1458  -18.8140 O   0  0  0  0  0  0  0  0  0  0  0  0
  -17.0491   14.4100  -17.7349 C   0  0  1  0  0  0  0  0  0  0  0  0
  -17.9263   15.5065  -17.8200 O   0  0  0  0  0  0  0  0  0  0  0  0
  -17.0723   13.6837  -16.3864 C   0  0  2  0  0  0  0  0  0  0  0  0
  -16.6608   15.6878  -11.6462 N   0  0  0  0  0  0  0  0  0  0  0  0
  -13.1271   12.8329  -20.9223 O   0  0  0  0  0  0  0  0  0  0  0  0
  -11.7647    8.6827  -19.2604 O   0  0  0  0  0  0  0  0  0  0  0  0
  -13.0900    6.7218  -23.0798 O   0  0  0  0  0  0  0  0  0  0  0  0
  -17.7787   15.2096  -12.2894 C   0  0  0  0  0  0  0  0  0  0  0  0
  -19.0341   15.2274  -11.6282 N   0  0  0  0  0  0  0  0  0  0  0  0
  -14.5789   11.0137  -22.1576 O   0  0  0  0  0  0  0  0  0  0  0  0
  -10.8494   10.5811  -20.8056 O   0  0  0  0  0  0  0  0  0  0  0  0
  -10.6755    7.6517  -22.7664 O   0  0  0  0  0  0  0  0  0  0  0  0
  -17.6988   14.7219  -13.5613 N   0  0  0  0  0  0  0  0  0  0  0  0
  -12.9448    8.8705  -21.6529 N   0  0  0  0  0  0  0  0  0  0  0  0
  -13.3810   10.5818  -19.6232 O   0  0  0  0  0  0  0  0  0  0  0  0
  -12.0379    6.3887  -20.7328 O   0  0  0  0  0  0  0  0  0  0  0  0
  -16.4855   14.7258  -14.1592 C   0  0  0  0  0  0  0  0  0  0  0  0
  -15.3615   15.1787  -13.5454 C   0  0  0  0  0  0  0  0  0  0  0  0
  -15.4345   15.6844  -12.2466 C   0  0  0  0  0  0  0  0  0  0  0  0
  -14.4225   16.1264  -11.6341 O   0  0  0  0  0  0  0  0  0  0  0  0
  -14.2987   15.0457  -14.3645 N   0  0  0  0  0  0  0  0  0  0  0  0
  -14.8428   14.4988  -15.4856 C   0  0  0  0  0  0  0  0  0  0  0  0
  -16.1860   14.3081  -15.3974 N   0  0  0  0  0  0  0  0  0  0  0  0
  -15.3775   10.5741  -18.6060 H   0  0  0  0  0  0  0  0  0  0  0  0
  -14.6438   12.1049  -17.9502 H   0  0  0  0  0  0  0  0  0  0  0  0
  -17.4888   11.1878  -18.0989 H   0  0  0  0  0  0  0  0  0  0  0  0
  -16.9508   13.4888  -19.7013 H   0  0  0  0  0  0  0  0  0  0  0  0
  -19.1202   13.9461  -19.3008 H   0  0  0  0  0  0  0  0  0  0  0  0
  -16.0273   14.7814  -17.9584 H   0  0  0  0  0  0  0  0  0  0  0  0
  -17.5480   16.2562  -17.2914 H   0  0  0  0  0  0  0  0  0  0  0  0
  -18.1116   13.6519  -15.9888 H   0  0  0  0  0  0  0  0  0  0  0  0
  -16.7484   16.0601  -10.6732 H   0  0  0  0  0  0  0  0  0  0  0  0
  -19.8885   14.8686  -12.1096 H   0  0  0  0  0  0  0  0  0  0  0  0
  -19.1215   15.5973  -10.6557 H   0  0  0  0  0  0  0  0  0  0  0  0
  -15.1795   11.6992  -22.5451 H   0  0  0  0  0  0  0  0  0  0  0  0
  -10.1901   10.4959  -20.0722 H   0  0  0  0  0  0  0  0  0  0  0  0
  -10.8701    7.9880  -23.6776 H   0  0  0  0  0  0  0  0  0  0  0  0
  -12.8722    9.4916  -22.4872 H   0  0  0  0  0  0  0  0  0  0  0  0
  -12.7347    6.7090  -20.1058 H   0  0  0  0  0  0  0  0  0  0  0  0
  -14.2540   14.2376  -16.3538 H   0  0  0  0  0  0  0  0  0  0  0  0
  5  4  1  0
  1  5  1  1
  6  4  1  0
  7  6  1  0
  8  6  1  0
  8  9  1  0
 10  8  1  0
 10 11  1  0
 12  7  1  0
 12 10  1  0
 14  1  2  0
 15  2  2  0
 16  3  2  0
 17 13  1  0
 18 17  1  0
 19  1  1  0
  2 20  1  6
 21  3  1  0
 22 17  2  0
 23  3  1  0
 23  2  1  0
 24  2  1  0
 24  1  1  0
 25  3  1  0
 26 22  1  0
 27 26  2  0
 28 27  1  0
 28 13  1  0
 29 28  2  0
 30 27  1  0
 31 30  2  0
 12 32  1  0
 32 31  1  0
 32 26  1  0
  4 33  1  0
  4 34  1  0
  6 35  1  1
  8 36  1  6
  9 37  1  0
 10 38  1  6
 11 39  1  0
 12 40  1  1
 13 41  1  0
 18 42  1  0
 18 43  1  0
 19 44  1  0
 20 45  1  0
 21 46  1  0
 23 47  1  0
 25 48  1  0
 31 49  1  0
M  END
