
     RDKit          3D

 49 51  0  0  0  0  0  0  0  0999 V2000
  -13.9683   11.7129  -20.6088 P   0  0  2  0  0  0  0  0  0  0  0  0
  -12.0980    9.7010  -20.1986 P   0  0  1  0  0  0  0  0  0  0  0  0
  -11.8114    8.6692  -22.8780 P   0  0  0  0  0  0  0  0  0  0  0  0
  -15.3769   11.7567  -18.5073 C   0  0  0  0  0  0  0  0  0  0  0  0
  -15.3112   12.3024  -19.8027 O   0  0  0  0  0  0  0  0  0  0  0  0
  -16.7355   12.1491  -17.9247 C   0  0  1  0  0  0  0  0  0  0  0  0
  -16.5912   12.4495  -16.5454 O   0  0  0  0  0  0  0  0  0  0  0  0
  -17.3088   13.3783  -18.6454 C   0  0  1  0  0  0  0  0  0  0  0  0
  -18.7011   13.2412  -18.7717 O   0  0  0  0  0  0  0  0  0  0  0  0
  -16.9576   14.5000  -17.6887 C   0  0  1  0  0  0  0  0  0  0  0  0
  -17.8252   15.6028  -17.7897 O   0  0  0  0  0  0  0  0  0  0  0  0
  -16.9975   13.7849  -16.3346 C   0  0  2  0  0  0  0  0  0  0  0  0
  -16.6081   15.8239  -11.6074 N   0  0  0  0  0  0  0  0  0  0  0  0
  -13.0229   12.8657  -20.8313 O   0  0  0  0  0  0  0  0  0  0  0  0
  -11.7076    8.7183  -19.1251 O   0  0  0  0  0  0  0  0  0  0  0  0
  -12.5555    7.7786  -23.8367 O   0  0  0  0  0  0  0  0  0  0  0  0
  -17.7246   15.3495  -12.2559 C   0  0  0  0  0  0  0  0  0  0  0  0
  -18.9851   15.3828  -11.6051 N   0  0  0  0  0  0  0  0  0  0  0  0
  -14.4794   11.0483  -22.0637 O   0  0  0  0  0  0  0  0  0  0  0  0
  -10.7645   10.5967  -20.6780 O   0  0  0  0  0  0  0  0  0  0  0  0
  -11.4609   10.1337  -23.6182 O   0  0  0  0  0  0  0  0  0  0  0  0
  -17.6384   14.8509  -13.5231 N   0  0  0  0  0  0  0  0  0  0  0  0
  -12.8668    8.8962  -21.5285 N   0  0  0  0  0  0  0  0  0  0  0  0
  -13.3055   10.6273  -19.5162 O   0  0  0  0  0  0  0  0  0  0  0  0
  -10.4004    7.9029  -22.3993 O   0  0  0  0  0  0  0  0  0  0  0  0
  -16.4203   14.8402  -14.1112 C   0  0  0  0  0  0  0  0  0  0  0  0
  -15.2976   15.2890  -13.4919 C   0  0  0  0  0  0  0  0  0  0  0  0
  -15.3770   15.8058  -12.1978 C   0  0  0  0  0  0  0  0  0  0  0  0
  -14.3665   16.2446  -11.5807 O   0  0  0  0  0  0  0  0  0  0  0  0
  -14.2294   15.1409  -14.3012 N   0  0  0  0  0  0  0  0  0  0  0  0
  -14.7688   14.5893  -15.4223 C   0  0  0  0  0  0  0  0  0  0  0  0
  -16.1142   14.4101  -15.3434 N   0  0  0  0  0  0  0  0  0  0  0  0
  -15.3101   10.6439  -18.5153 H   0  0  0  0  0  0  0  0  0  0  0  0
  -14.5693   12.1740  -17.8659 H   0  0  0  0  0  0  0  0  0  0  0  0
  -17.4205   11.2787  -18.0303 H   0  0  0  0  0  0  0  0  0  0  0  0
  -16.8509   13.5621  -19.6467 H   0  0  0  0  0  0  0  0  0  0  0  0
  -18.8547   12.5297  -19.4469 H   0  0  0  0  0  0  0  0  0  0  0  0
  -15.9310   14.8613  -17.9068 H   0  0  0  0  0  0  0  0  0  0  0  0
  -17.2940   16.4341  -17.6838 H   0  0  0  0  0  0  0  0  0  0  0  0
  -18.0402   13.7646  -15.9452 H   0  0  0  0  0  0  0  0  0  0  0  0
  -16.7005   16.2048  -10.6382 H   0  0  0  0  0  0  0  0  0  0  0  0
  -19.8384   15.0270  -12.0905 H   0  0  0  0  0  0  0  0  0  0  0  0
  -19.0773   15.7612  -10.6363 H   0  0  0  0  0  0  0  0  0  0  0  0
  -14.2116   11.7088  -22.7514 H   0  0  0  0  0  0  0  0  0  0  0  0
  -10.1119   10.5122  -19.9386 H   0  0  0  0  0  0  0  0  0  0  0  0
  -11.7497   10.0193  -24.5587 H   0  0  0  0  0  0  0  0  0  0  0  0
  -13.6501    9.4996  -21.8593 H   0  0  0  0  0  0  0  0  0  0  0  0
  -10.6389    7.4316  -21.5614 H   0  0  0  0  0  0  0  0  0  0  0  0
  -14.1752   14.3164  -16.2835 H   0  0  0  0  0  0  0  0  0  0  0  0
  5  4  1  0
  1  5  1  1
  6  4  1  0
  7  6  1  0
  8  6  1  0
  8  9  1  0
 10  8  1  0
 10 11  1  0
 12  7  1  0
 12 10  1  0
 14  1  2  0
 15  2  2  0
 16  3  2  0
 17 13  1  0
 18 17  1  0
 19  1  1  0
  2 20  1  6
 21  3  1  0
 22 17  2  0
 23  3  1  0
 23  2  1  0
 24  2  1  0
 24  1  1  0
 25  3  1  0
 26 22  1  0
 27 26  2  0
 28 27  1  0
 28 13  1  0
 29 28  2  0
 30 27  1  0
 31 30  2  0
 12 32  1  0
 32 31  1  0
 32 26  1  0
  4 33  1  0
  4 34  1  0
  6 35  1  1
  8 36  1  6
  9 37  1  0
 10 38  1  6
 11 39  1  0
 12 40  1  1
 13 41  1  0
 18 42  1  0
 18 43  1  0
 19 44  1  0
 20 45  1  0
 21 46  1  0
 23 47  1  0
 25 48  1  0
 31 49  1  0
M  END
