
     RDKit          3D

 35 37  0  0  0  0  0  0  0  0999 V2000
   57.3215   73.5492   21.1568 C   0  0  0  0  0  0  0  0  0  0  0  0
   57.4600   72.0813   22.2422 S   0  0  0  0  0  0  0  0  0  0  0  0
   58.6286   74.3785   21.0639 C   0  0  1  0  0  0  0  0  0  0  0  0
   58.5352   75.2548   19.9580 O   0  0  0  0  0  0  0  0  0  0  0  0
   58.9006   75.2479   22.2884 C   0  0  1  0  0  0  0  0  0  0  0  0
   60.2878   75.5111   22.3794 O   0  0  0  0  0  0  0  0  0  0  0  0
   58.1062   76.5153   21.9570 C   0  0  1  0  0  0  0  0  0  0  0  0
   58.7897   77.6704   22.3880 O   0  0  0  0  0  0  0  0  0  0  0  0
   57.9456   76.4657   20.4049 C   0  0  2  0  0  0  0  0  0  0  0  0
   52.6989   76.3334   21.0818 N   0  0  0  0  0  0  0  0  0  0  0  0
   53.6724   76.3126   22.0448 C   0  0  0  0  0  0  0  0  0  0  0  0
   54.9920   76.3891   21.7034 N   0  0  0  0  0  0  0  0  0  0  0  0
   55.3205   76.4914   20.3916 C   0  0  0  0  0  0  0  0  0  0  0  0
   54.3691   76.5218   19.4146 C   0  0  0  0  0  0  0  0  0  0  0  0
   53.0129   76.4357   19.7562 C   0  0  0  0  0  0  0  0  0  0  0  0
   51.9784   76.4452   18.7756 N   0  0  0  0  0  0  0  0  0  0  0  0
   54.9472   76.6214   18.2028 N   0  0  0  0  0  0  0  0  0  0  0  0
   56.2774   76.6473   18.5043 C   0  0  0  0  0  0  0  0  0  0  0  0
   56.5577   76.5705   19.8423 N   0  0  0  0  0  0  0  0  0  0  0  0
   58.9612   72.6041   23.1376 C   0  0  0  0  0  0  0  0  0  0  0  0
   57.0119   73.2287   20.1390 H   0  0  0  0  0  0  0  0  0  0  0  0
   56.5007   74.1752   21.5570 H   0  0  0  0  0  0  0  0  0  0  0  0
   59.4796   73.6843   20.8945 H   0  0  0  0  0  0  0  0  0  0  0  0
   58.5336   74.7596   23.2220 H   0  0  0  0  0  0  0  0  0  0  0  0
   60.4140   76.0893   23.1764 H   0  0  0  0  0  0  0  0  0  0  0  0
   57.1557   76.4488   22.5066 H   0  0  0  0  0  0  0  0  0  0  0  0
   58.0986   78.3726   22.5098 H   0  0  0  0  0  0  0  0  0  0  0  0
   58.5442   77.2969   19.9719 H   0  0  0  0  0  0  0  0  0  0  0  0
   53.3934   76.2307   23.0861 H   0  0  0  0  0  0  0  0  0  0  0  0
   51.9166   77.2249   18.0839 H   0  0  0  0  0  0  0  0  0  0  0  0
   51.2717   75.6775   18.7348 H   0  0  0  0  0  0  0  0  0  0  0  0
   57.0452   76.7018   17.7432 H   0  0  0  0  0  0  0  0  0  0  0  0
   58.9731   72.1653   24.1563 H   0  0  0  0  0  0  0  0  0  0  0  0
   59.8549   72.2510   22.5835 H   0  0  0  0  0  0  0  0  0  0  0  0
   58.9955   73.7112   23.2062 H   0  0  0  0  0  0  0  0  0  0  0  0
  2  1  1  0
  3  1  1  0
  4  3  1  0
  5  3  1  0
  5  6  1  0
  7  5  1  0
  7  8  1  0
  9  4  1  0
  9  7  1  0
 11 10  2  0
 12 11  1  0
 13 12  2  0
 14 13  1  0
 15 14  2  0
 15 10  1  0
 16 15  1  0
 17 14  1  0
 18 17  2  0
 19 18  1  0
 19 13  1  0
  9 19  1  0
 20  2  1  0
  1 21  1  0
  1 22  1  0
  3 23  1  6
  5 24  1  1
  6 25  1  0
  7 26  1  1
  8 27  1  0
  9 28  1  6
 11 29  1  0
 16 30  1  0
 16 31  1  0
 18 32  1  0
 20 33  1  0
 20 34  1  0
 20 35  1  0
M  END
