
     RDKit          3D

 35 37  0  0  0  0  0  0  0  0999 V2000
   55.3019   73.1651   21.9026 C   0  0  0  0  0  0  0  0  0  0  0  0
   54.7455   72.0967   23.2813 S   0  0  0  0  0  0  0  0  0  0  0  0
   56.7821   73.6117   22.0211 C   0  0  1  0  0  0  0  0  0  0  0  0
   57.3189   73.7615   20.7215 O   0  0  0  0  0  0  0  0  0  0  0  0
   56.9721   74.9502   22.7293 C   0  0  1  0  0  0  0  0  0  0  0  0
   58.2761   75.0128   23.2747 O   0  0  0  0  0  0  0  0  0  0  0  0
   56.7940   75.9438   21.5767 C   0  0  1  0  0  0  0  0  0  0  0  0
   57.6785   77.0340   21.7047 O   0  0  0  0  0  0  0  0  0  0  0  0
   57.0804   75.0948   20.2983 C   0  0  2  0  0  0  0  0  0  0  0  0
   52.0367   75.6177   18.7844 N   0  0  0  0  0  0  0  0  0  0  0  0
   52.5784   75.8850   20.0134 C   0  0  0  0  0  0  0  0  0  0  0  0
   53.9167   75.7296   20.2338 N   0  0  0  0  0  0  0  0  0  0  0  0
   54.7009   75.3101   19.2100 C   0  0  0  0  0  0  0  0  0  0  0  0
   54.1864   75.0448   17.9749 C   0  0  0  0  0  0  0  0  0  0  0  0
   52.8127   75.1942   17.7428 C   0  0  0  0  0  0  0  0  0  0  0  0
   52.2192   74.9145   16.4773 N   0  0  0  0  0  0  0  0  0  0  0  0
   55.1620   74.6414   17.1394 N   0  0  0  0  0  0  0  0  0  0  0  0
   56.2720   74.6784   17.9315 C   0  0  0  0  0  0  0  0  0  0  0  0
   56.0382   75.0857   19.2176 N   0  0  0  0  0  0  0  0  0  0  0  0
   54.0250   70.7677   22.2598 C   0  0  0  0  0  0  0  0  0  0  0  0
   55.1502   72.6338   20.9386 H   0  0  0  0  0  0  0  0  0  0  0  0
   54.6370   74.0503   21.8864 H   0  0  0  0  0  0  0  0  0  0  0  0
   57.3523   72.8180   22.5502 H   0  0  0  0  0  0  0  0  0  0  0  0
   56.2072   75.0987   23.5278 H   0  0  0  0  0  0  0  0  0  0  0  0
   58.7483   75.7424   22.7951 H   0  0  0  0  0  0  0  0  0  0  0  0
   55.7636   76.3233   21.6391 H   0  0  0  0  0  0  0  0  0  0  0  0
   57.4206   77.6847   21.0009 H   0  0  0  0  0  0  0  0  0  0  0  0
   58.0262   75.4654   19.8457 H   0  0  0  0  0  0  0  0  0  0  0  0
   51.9391   76.2188   20.8189 H   0  0  0  0  0  0  0  0  0  0  0  0
   51.1910   75.0344   16.3407 H   0  0  0  0  0  0  0  0  0  0  0  0
   52.8002   74.5878   15.6735 H   0  0  0  0  0  0  0  0  0  0  0  0
   57.2514   74.3872   17.5741 H   0  0  0  0  0  0  0  0  0  0  0  0
   53.6222   71.1856   21.3145 H   0  0  0  0  0  0  0  0  0  0  0  0
   54.8153   70.0279   22.0181 H   0  0  0  0  0  0  0  0  0  0  0  0
   53.2139   70.2570   22.8191 H   0  0  0  0  0  0  0  0  0  0  0  0
  2  1  1  0
  3  1  1  0
  4  3  1  0
  5  3  1  0
  5  6  1  0
  7  5  1  0
  7  8  1  0
  9  4  1  0
  9  7  1  0
 11 10  2  0
 12 11  1  0
 13 12  2  0
 14 13  1  0
 15 14  2  0
 15 10  1  0
 16 15  1  0
 17 14  1  0
 18 17  2  0
 19 18  1  0
 19 13  1  0
  9 19  1  0
 20  2  1  0
  1 21  1  0
  1 22  1  0
  3 23  1  1
  5 24  1  1
  6 25  1  0
  7 26  1  6
  8 27  1  0
  9 28  1  6
 11 29  1  0
 16 30  1  0
 16 31  1  0
 18 32  1  0
 20 33  1  0
 20 34  1  0
 20 35  1  0
M  END
