
     RDKit          3D

 52 55  0  0  0  0  0  0  0  0999 V2000
   51.8055   32.7127   47.6954 C   0  0  0  0  0  0  0  0  0  0  0  0
   52.2197   33.8548   48.0489 O   0  0  0  0  0  0  0  0  0  0  0  0
   50.4791   32.1681   48.0803 C   0  0  0  0  0  0  0  0  0  0  0  0
   50.5170   31.1416   49.1616 C   0  0  0  0  0  0  0  0  0  0  0  0
   50.9254   31.5098   50.4504 C   0  0  0  0  0  0  0  0  0  0  0  0
   49.9934   29.8600   48.9344 C   0  0  0  0  0  0  0  0  0  0  0  0
   50.8290   30.5965   51.4996 C   0  0  0  0  0  0  0  0  0  0  0  0
   49.8853   28.9533   49.9906 C   0  0  0  0  0  0  0  0  0  0  0  0
   50.2992   29.3234   51.2732 C   0  0  0  0  0  0  0  0  0  0  0  0
   53.9609   32.3413   46.1187 P   0  0  2  0  0  0  0  0  0  0  0  0
   52.5766   31.8498   46.9444 O   0  0  0  0  0  0  0  0  0  0  0  0
   54.9264   33.2409   47.1524 O   0  0  0  0  0  0  0  0  0  0  0  0
   53.5116   33.1690   44.9430 O   0  0  0  0  0  0  0  0  0  0  0  0
   54.0852   30.2133   44.7541 C   0  0  0  0  0  0  0  0  0  0  0  0
   54.8505   30.9916   45.6362 O   0  0  0  0  0  0  0  0  0  0  0  0
   54.8456   28.9106   44.5114 C   0  0  1  0  0  0  0  0  0  0  0  0
   55.0702   28.1980   45.7071 O   0  0  0  0  0  0  0  0  0  0  0  0
   54.1789   27.9581   43.5336 C   0  0  1  0  0  0  0  0  0  0  0  0
   54.3194   28.3577   42.1900 O   0  0  0  0  0  0  0  0  0  0  0  0
   54.8988   26.6679   43.8589 C   0  0  1  0  0  0  0  0  0  0  0  0
   56.1450   26.6061   43.2027 O   0  0  0  0  0  0  0  0  0  0  0  0
   55.1139   26.8175   45.3701 C   0  0  2  0  0  0  0  0  0  0  0  0
   53.2924   22.2011   46.8168 N   0  0  0  0  0  0  0  0  0  0  0  0
   54.3973   22.4876   46.0644 C   0  0  0  0  0  0  0  0  0  0  0  0
   54.7324   23.7840   45.7899 N   0  0  0  0  0  0  0  0  0  0  0  0
   53.9321   24.7701   46.2643 C   0  0  0  0  0  0  0  0  0  0  0  0
   52.8273   24.5129   46.9976 C   0  0  0  0  0  0  0  0  0  0  0  0
   52.4957   23.1938   47.3056 C   0  0  0  0  0  0  0  0  0  0  0  0
   51.3634   22.8692   48.0985 N   0  0  0  0  0  0  0  0  0  0  0  0
   52.2068   25.6638   47.3297 N   0  0  0  0  0  0  0  0  0  0  0  0
   52.9780   26.6180   46.7322 C   0  0  0  0  0  0  0  0  0  0  0  0
   54.0678   26.0966   46.1022 N   0  0  0  0  0  0  0  0  0  0  0  0
   50.0048   31.7258   47.1769 H   0  0  0  0  0  0  0  0  0  0  0  0
   49.8302   33.0191   48.3824 H   0  0  0  0  0  0  0  0  0  0  0  0
   51.3097   32.5034   50.6464 H   0  0  0  0  0  0  0  0  0  0  0  0
   49.6496   29.5728   47.9482 H   0  0  0  0  0  0  0  0  0  0  0  0
   51.1477   30.8800   52.4944 H   0  0  0  0  0  0  0  0  0  0  0  0
   49.4769   27.9660   49.8168 H   0  0  0  0  0  0  0  0  0  0  0  0
   50.2147   28.6202   52.0917 H   0  0  0  0  0  0  0  0  0  0  0  0
   55.4530   33.8342   46.5599 H   0  0  0  0  0  0  0  0  0  0  0  0
   53.9512   30.7467   43.7862 H   0  0  0  0  0  0  0  0  0  0  0  0
   53.0917   29.9525   45.1832 H   0  0  0  0  0  0  0  0  0  0  0  0
   55.8463   29.1986   44.1115 H   0  0  0  0  0  0  0  0  0  0  0  0
   53.0969   27.8543   43.7743 H   0  0  0  0  0  0  0  0  0  0  0  0
   53.4269   28.5956   41.8275 H   0  0  0  0  0  0  0  0  0  0  0  0
   54.2691   25.7882   43.5883 H   0  0  0  0  0  0  0  0  0  0  0  0
   56.7982   27.0564   43.7993 H   0  0  0  0  0  0  0  0  0  0  0  0
   56.1042   26.4071   45.6674 H   0  0  0  0  0  0  0  0  0  0  0  0
   55.0162   21.6831   45.6917 H   0  0  0  0  0  0  0  0  0  0  0  0
   50.8287   21.9909   47.9172 H   0  0  0  0  0  0  0  0  0  0  0  0
   51.0507   23.4985   48.8711 H   0  0  0  0  0  0  0  0  0  0  0  0
   52.7578   27.6763   46.7874 H   0  0  0  0  0  0  0  0  0  0  0  0
  2  1  2  0
  3  1  1  0
  4  3  1  0
  5  4  2  0
  6  4  1  0
  7  5  1  0
  8  6  2  0
  9  8  1  0
  9  7  2  0
 11  1  1  0
 10 11  1  1
 12 10  1  0
 13 10  2  0
 15 14  1  0
 15 10  1  0
 16 14  1  0
 17 16  1  0
 18 16  1  0
 18 19  1  0
 20 18  1  0
 20 21  1  0
 22 20  1  0
 22 17  1  0
 24 23  2  0
 25 24  1  0
 26 25  2  0
 27 26  1  0
 28 27  2  0
 28 23  1  0
 29 28  1  0
 30 27  1  0
 31 30  2  0
 32 31  1  0
 32 26  1  0
 22 32  1  0
  3 33  1  0
  3 34  1  0
  5 35  1  0
  6 36  1  0
  7 37  1  0
  8 38  1  0
  9 39  1  0
 12 40  1  0
 14 41  1  0
 14 42  1  0
 16 43  1  6
 18 44  1  1
 19 45  1  0
 20 46  1  1
 21 47  1  0
 22 48  1  1
 24 49  1  0
 29 50  1  0
 29 51  1  0
 31 52  1  0
M  END
