
     RDKit          3D

 38 39  0  0  0  0  0  0  0  0999 V2000
   60.2327   37.0370   15.5430 C   0  0  0  0  0  0  0  0  0  0  0  0
   63.1614   33.3535   20.3119 C   0  0  0  0  0  0  0  0  0  0  0  0
   64.4195   37.5830   23.3542 P   0  0  0  0  0  0  0  0  0  0  0  0
   62.3254   35.7555   15.6150 N   0  0  0  0  0  0  0  0  0  0  0  0
   65.0700   36.8112   24.6936 O   0  0  0  0  0  0  0  0  0  0  0  0
   66.7633   34.2790   18.8815 S   0  0  0  0  0  0  0  0  0  0  0  0
   65.7985   33.5277   17.7294 C   0  0  0  0  0  0  0  0  0  0  0  0
   61.0160   35.8449   15.9545 C   0  0  0  0  0  0  0  0  0  0  0  0
   62.7852   37.8577   23.6125 O   0  0  0  0  0  0  0  0  0  0  0  0
   64.5688   33.2305   18.2227 N   0  0  0  0  0  0  0  0  0  0  0  0
   60.4547   34.8961   16.7389 N   0  0  0  0  0  0  0  0  0  0  0  0
   65.1059   38.9050   23.0909 O   0  0  0  0  0  0  0  0  0  0  0  0
   64.4341   33.5996   19.5406 C   0  0  0  0  0  0  0  0  0  0  0  0
   61.1691   33.8337   17.1921 C   0  0  0  0  0  0  0  0  0  0  0  0
   60.4681   32.8817   17.9878 N   0  0  0  0  0  0  0  0  0  0  0  0
   65.5731   34.2365   20.0750 C   0  0  0  0  0  0  0  0  0  0  0  0
   62.5533   33.7237   16.8658 C   0  0  0  0  0  0  0  0  0  0  0  0
   65.8219   34.6581   21.5012 C   0  0  0  0  0  0  0  0  0  0  0  0
   63.0911   34.7214   16.0410 C   0  0  0  0  0  0  0  0  0  0  0  0
   65.8774   36.1687   21.7534 C   0  0  0  0  0  0  0  0  0  0  0  0
   63.5009   32.6437   17.3788 C   0  0  0  0  0  0  0  0  0  0  0  0
   64.5449   36.5616   22.0135 O   0  0  0  0  0  0  0  0  0  0  0  0
   58.8818   36.8157   15.6887 F   0  0  0  0  0  0  0  0  0  0  0  0
   60.4967   37.3411   14.2268 F   0  0  0  0  0  0  0  0  0  0  0  0
   60.5996   38.0947   16.3387 F   0  0  0  0  0  0  0  0  0  0  0  0
   62.7267   32.3766   20.0176 H   0  0  0  0  0  0  0  0  0  0  0  0
   63.2976   33.3381   21.4063 H   0  0  0  0  0  0  0  0  0  0  0  0
   62.4420   34.1655   20.0904 H   0  0  0  0  0  0  0  0  0  0  0  0
   66.1068   33.3244   16.7119 H   0  0  0  0  0  0  0  0  0  0  0  0
   60.9053   32.3274   18.7537 H   0  0  0  0  0  0  0  0  0  0  0  0
   60.9053   32.3274   18.7537 H   0  0  0  0  0  0  0  0  0  0  0  0
   65.0882   34.1975   22.1880 H   0  0  0  0  0  0  0  0  0  0  0  0
   66.8008   34.2293   21.8073 H   0  0  0  0  0  0  0  0  0  0  0  0
   64.1334   34.6903   15.7513 H   0  0  0  0  0  0  0  0  0  0  0  0
   66.5775   36.3645   22.5976 H   0  0  0  0  0  0  0  0  0  0  0  0
   66.2407   36.6899   20.8418 H   0  0  0  0  0  0  0  0  0  0  0  0
   63.0041   31.8250   17.9238 H   0  0  0  0  0  0  0  0  0  0  0  0
   63.9578   32.1417   16.4973 H   0  0  0  0  0  0  0  0  0  0  0  0
  5  3  1  0
  7  6  1  0
  8  1  1  0
  8  4  2  0
  9  3  1  0
 10  7  2  0
 11  8  1  0
 12  3  2  0
 13 10  1  0
 13  2  1  0
 14 11  2  0
 15 14  1  0
 16 13  2  0
 16  6  1  0
 17 14  1  0
 18 16  1  0
 19 17  2  0
 19  4  1  0
 20 18  1  0
 21 17  1  0
 21 10  1  0
 22 20  1  0
 22  3  1  0
  1 23  1  0
 24  1  1  0
 25  1  1  0
  2 26  1  0
  2 27  1  0
  2 28  1  0
  7 29  1  0
 15 30  1  0
 15 31  1  0
 18 32  1  0
 18 33  1  0
 19 34  1  0
 20 35  1  0
 20 36  1  0
 21 37  1  0
 21 38  1  0
M  CHG  3   5  -1   9  -1  10   1
M  END
