
     RDKit          3D

 42 44  0  0  0  0  0  0  0  0999 V2000
   55.1421   -0.7119   21.4525 P   0  0  0  0  0  0  0  0  0  0  0  0
   49.6375   -1.2702   16.5010 P   0  0  0  0  0  0  0  0  0  0  0  0
   56.1844    0.3675   21.2723 O   0  0  0  0  0  0  0  0  0  0  0  0
   55.6116   -2.1079   20.6496 O   0  0  0  0  0  0  0  0  0  0  0  0
   54.9495   -1.0337   23.0852 O   0  0  0  0  0  0  0  0  0  0  0  0
   48.3070   -1.7007   17.0720 O   0  0  0  0  0  0  0  0  0  0  0  0
   49.4109   -0.1905   15.2381 O   0  0  0  0  0  0  0  0  0  0  0  0
   50.5319   -2.5837   15.9611 O   0  0  0  0  0  0  0  0  0  0  0  0
   51.0179   -1.2596   18.6487 C   0  0  0  0  0  0  0  0  0  0  0  0
   50.4984   -0.4128   17.6598 O   0  0  0  0  0  0  0  0  0  0  0  0
   51.7766   -0.3317   19.5948 C   0  0  1  0  0  0  0  0  0  0  0  0
   50.8485    0.4825   20.3016 O   0  0  0  0  0  0  0  0  0  0  0  0
   52.6790   -1.0354   20.6120 C   0  0  1  0  0  0  0  0  0  0  0  0
   53.7041   -0.0848   20.8408 O   0  0  0  0  0  0  0  0  0  0  0  0
   51.7087   -1.1117   21.7808 C   0  0  1  0  0  0  0  0  0  0  0  0
   52.3230   -1.3418   23.0182 O   0  0  0  0  0  0  0  0  0  0  0  0
   51.0855    0.2703   21.6744 C   0  0  2  0  0  0  0  0  0  0  0  0
   48.8172    2.6853   25.6086 N   0  0  0  0  0  0  0  0  0  0  0  0
   50.1130    2.7707   25.1753 C   0  0  0  0  0  0  0  0  0  0  0  0
   50.5359    2.0352   24.1045 N   0  0  0  0  0  0  0  0  0  0  0  0
   49.6398    1.2228   23.4893 C   0  0  0  0  0  0  0  0  0  0  0  0
   48.3531    1.1233   23.8897 C   0  0  0  0  0  0  0  0  0  0  0  0
   47.9123    1.8729   24.9862 C   0  0  0  0  0  0  0  0  0  0  0  0
   46.5716    1.8030   25.4586 N   0  0  0  0  0  0  0  0  0  0  0  0
   47.6847    0.2573   23.0977 N   0  0  0  0  0  0  0  0  0  0  0  0
   48.6369   -0.1522   22.2128 C   0  0  0  0  0  0  0  0  0  0  0  0
   49.8491    0.4139   22.4405 N   0  0  0  0  0  0  0  0  0  0  0  0
   55.6601   -1.8466   19.6954 H   0  0  0  0  0  0  0  0  0  0  0  0
   54.7478   -2.0025   23.1312 H   0  0  0  0  0  0  0  0  0  0  0  0
   48.9031   -0.6996   14.5570 H   0  0  0  0  0  0  0  0  0  0  0  0
   50.4000   -3.2813   16.6515 H   0  0  0  0  0  0  0  0  0  0  0  0
   51.7218   -1.9906   18.1927 H   0  0  0  0  0  0  0  0  0  0  0  0
   50.2123   -1.7900   19.2064 H   0  0  0  0  0  0  0  0  0  0  0  0
   52.4044    0.3323   18.9536 H   0  0  0  0  0  0  0  0  0  0  0  0
   53.0476   -2.0256   20.2619 H   0  0  0  0  0  0  0  0  0  0  0  0
   50.9582   -1.9125   21.5815 H   0  0  0  0  0  0  0  0  0  0  0  0
   51.5908   -1.4589   23.6779 H   0  0  0  0  0  0  0  0  0  0  0  0
   51.8150    1.0353   22.0301 H   0  0  0  0  0  0  0  0  0  0  0  0
   50.8074    3.4241   25.6852 H   0  0  0  0  0  0  0  0  0  0  0  0
   45.8834    2.5551   25.2322 H   0  0  0  0  0  0  0  0  0  0  0  0
   46.2607    0.9935   26.0401 H   0  0  0  0  0  0  0  0  0  0  0  0
   48.4370   -0.8461   21.4069 H   0  0  0  0  0  0  0  0  0  0  0  0
  3  1  2  0
  4  1  1  0
  5  1  1  0
  6  2  2  0
  7  2  1  0
  8  2  1  0
 10  9  1  0
 10  2  1  0
 11  9  1  0
 12 11  1  0
 13 11  1  0
 13 14  1  0
 14  1  1  0
 15 13  1  0
 15 16  1  0
 17 15  1  0
 17 12  1  0
 19 18  2  0
 20 19  1  0
 21 20  2  0
 22 21  1  0
 23 22  2  0
 23 18  1  0
 24 23  1  0
 25 22  1  0
 26 25  2  0
 27 26  1  0
 17 27  1  0
 27 21  1  0
  4 28  1  0
  5 29  1  0
  7 30  1  0
  8 31  1  0
  9 32  1  0
  9 33  1  0
 11 34  1  6
 13 35  1  6
 15 36  1  6
 16 37  1  0
 17 38  1  1
 19 39  1  0
 24 40  1  0
 24 41  1  0
 26 42  1  0
M  END
