
     RDKit          3D

 32 32  0  0  0  0  0  0  0  0999 V2000
   48.7103   28.8679   11.2028 P   0  0  0  0  0  0  0  0  0  0  0  0
   52.7300   23.5476   15.1183 C   0  0  0  0  0  0  0  0  0  0  0  0
   52.1198   22.2881   15.1188 C   0  0  0  0  0  0  0  0  0  0  0  0
   50.7510   22.1843   15.3896 C   0  0  0  0  0  0  0  0  0  0  0  0
   49.9907   23.3301   15.6503 C   0  0  0  0  0  0  0  0  0  0  0  0
   50.5963   24.5974   15.6472 C   0  0  0  0  0  0  0  0  0  0  0  0
   51.9758   24.7018   15.3822 C   0  0  0  0  0  0  0  0  0  0  0  0
   52.6129   25.9406   15.3576 O   0  0  0  0  0  0  0  0  0  0  0  0
   49.8082   25.7791   15.8743 N   0  0  0  0  0  0  0  0  0  0  0  0
   48.6792   26.1384   15.0067 C   0  0  1  0  0  0  0  0  0  0  0  0
   48.8788   27.5559   14.4282 C   0  0  1  0  0  0  0  0  0  0  0  0
   47.7955   27.9535   13.4155 C   0  0  0  0  0  0  0  0  0  0  0  0
   48.2012   27.5439   12.1291 O   0  0  0  0  0  0  0  0  0  0  0  0
   47.5790   29.8670   11.0479 O   0  0  0  0  0  0  0  0  0  0  0  0
   50.0766   29.5960   11.8815 O   0  0  0  0  0  0  0  0  0  0  0  0
   49.1269   28.2329    9.7089 O   0  0  0  0  0  0  0  0  0  0  0  0
   48.5446   25.1947   13.9787 O   0  0  0  0  0  0  0  0  0  0  0  0
   48.9138   28.4844   15.4834 O   0  0  0  0  0  0  0  0  0  0  0  0
   53.7891   23.6292   14.9095 H   0  0  0  0  0  0  0  0  0  0  0  0
   52.7036   21.3998   14.9151 H   0  0  0  0  0  0  0  0  0  0  0  0
   50.2773   21.2112   15.3977 H   0  0  0  0  0  0  0  0  0  0  0  0
   48.9388   23.2187   15.8716 H   0  0  0  0  0  0  0  0  0  0  0  0
   53.5930   26.0542   15.1332 H   0  0  0  0  0  0  0  0  0  0  0  0
   50.1395   26.4825   16.5721 H   0  0  0  0  0  0  0  0  0  0  0  0
   47.7434   26.1363   15.6136 H   0  0  0  0  0  0  0  0  0  0  0  0
   49.8570   27.5892   13.9005 H   0  0  0  0  0  0  0  0  0  0  0  0
   46.8574   27.4059   13.6424 H   0  0  0  0  0  0  0  0  0  0  0  0
   47.5447   29.0361   13.5106 H   0  0  0  0  0  0  0  0  0  0  0  0
   50.1114   30.5032   11.4855 H   0  0  0  0  0  0  0  0  0  0  0  0
   49.9000   28.7748    9.4090 H   0  0  0  0  0  0  0  0  0  0  0  0
   48.2692   24.3440   14.4102 H   0  0  0  0  0  0  0  0  0  0  0  0
   48.0515   28.4258   15.9730 H   0  0  0  0  0  0  0  0  0  0  0  0
  3  2  2  0
  4  3  1  0
  5  4  2  0
  6  5  1  0
  7  6  2  0
  7  2  1  0
  8  7  1  0
  9  6  1  0
 10  9  1  0
 11 10  1  0
 12 11  1  0
 13  1  1  0
 13 12  1  0
 14  1  2  0
 15  1  1  0
 16  1  1  0
 10 17  1  0
 11 18  1  0
  2 19  1  0
  3 20  1  0
  4 21  1  0
  5 22  1  0
  8 23  1  0
  9 24  1  0
 10 25  1  1
 11 26  1  6
 12 27  1  0
 12 28  1  0
 15 29  1  0
 16 30  1  0
 17 31  1  0
 18 32  1  0
M  END
