
     RDKit          3D

 32 32  0  0  0  0  0  0  0  0999 V2000
   48.4970   29.2039   10.8131 P   0  0  0  0  0  0  0  0  0  0  0  0
   52.7898   24.5622   15.1286 C   0  0  0  0  0  0  0  0  0  0  0  0
   52.1872   23.2990   15.1251 C   0  0  0  0  0  0  0  0  0  0  0  0
   50.8208   23.1853   15.4036 C   0  0  0  0  0  0  0  0  0  0  0  0
   50.0552   24.3248   15.6758 C   0  0  0  0  0  0  0  0  0  0  0  0
   50.6531   25.5958   15.6767 C   0  0  0  0  0  0  0  0  0  0  0  0
   52.0303   25.7101   15.4040 C   0  0  0  0  0  0  0  0  0  0  0  0
   52.6598   26.9529   15.3831 O   0  0  0  0  0  0  0  0  0  0  0  0
   49.8593   26.7713   15.9158 N   0  0  0  0  0  0  0  0  0  0  0  0
   48.7228   27.1290   15.0572 C   0  0  1  0  0  0  0  0  0  0  0  0
   49.1672   27.1919   13.5800 C   0  0  1  0  0  0  0  0  0  0  0  0
   48.0046   27.4431   12.6092 C   0  0  0  0  0  0  0  0  0  0  0  0
   48.5212   27.5830   11.3051 O   0  0  0  0  0  0  0  0  0  0  0  0
   47.0753   29.7339   10.8196 O   0  0  0  0  0  0  0  0  0  0  0  0
   49.5038   30.1505   11.7867 O   0  0  0  0  0  0  0  0  0  0  0  0
   49.1052   29.2049    9.2515 O   0  0  0  0  0  0  0  0  0  0  0  0
   47.6836   26.2033   15.2264 O   0  0  0  0  0  0  0  0  0  0  0  0
   50.1408   28.1955   13.4331 O   0  0  0  0  0  0  0  0  0  0  0  0
   53.8471   24.6515   14.9139 H   0  0  0  0  0  0  0  0  0  0  0  0
   52.7752   22.4155   14.9125 H   0  0  0  0  0  0  0  0  0  0  0  0
   50.3530   22.2093   15.4086 H   0  0  0  0  0  0  0  0  0  0  0  0
   49.0053   24.2058   15.9028 H   0  0  0  0  0  0  0  0  0  0  0  0
   53.2070   27.2827   14.5984 H   0  0  0  0  0  0  0  0  0  0  0  0
   50.1906   27.4724   16.6159 H   0  0  0  0  0  0  0  0  0  0  0  0
   48.3502   28.1374   15.3543 H   0  0  0  0  0  0  0  0  0  0  0  0
   49.6260   26.2169   13.3057 H   0  0  0  0  0  0  0  0  0  0  0  0
   47.3372   26.5567   12.5934 H   0  0  0  0  0  0  0  0  0  0  0  0
   47.3726   28.2917   12.9617 H   0  0  0  0  0  0  0  0  0  0  0  0
   50.3864   29.7018   11.7615 H   0  0  0  0  0  0  0  0  0  0  0  0
   50.0514   29.4818    9.3475 H   0  0  0  0  0  0  0  0  0  0  0  0
   47.4379   25.8851   14.3185 H   0  0  0  0  0  0  0  0  0  0  0  0
   50.4408   28.1965   12.4862 H   0  0  0  0  0  0  0  0  0  0  0  0
  3  2  2  0
  4  3  1  0
  5  4  2  0
  6  5  1  0
  7  6  2  0
  7  2  1  0
  8  7  1  0
  9  6  1  0
 10  9  1  0
 11 10  1  0
 12 11  1  0
 13  1  1  0
 13 12  1  0
 14  1  2  0
 15  1  1  0
 16  1  1  0
 10 17  1  0
 11 18  1  0
  2 19  1  0
  3 20  1  0
  4 21  1  0
  5 22  1  0
  8 23  1  0
  9 24  1  0
 10 25  1  1
 11 26  1  6
 12 27  1  0
 12 28  1  0
 15 29  1  0
 16 30  1  0
 17 31  1  0
 18 32  1  0
M  END
