
     RDKit          3D

 34 36  0  0  0  0  0  0  0  0999 V2000
   18.3052   20.4935    9.3590 C   0  0  1  0  0  0  0  0  0  0  0  0
   20.5867   23.3789   11.3911 C   0  0  0  0  0  0  0  0  0  0  0  0
   20.6407   25.7329   12.3020 C   0  0  0  0  0  0  0  0  0  0  0  0
   21.3064   24.5473   11.6511 C   0  0  0  0  0  0  0  0  0  0  0  0
   23.2169   23.5026   10.6634 N   0  0  0  0  0  0  0  0  0  0  0  0
   22.6519   24.5868   11.2503 C   0  0  0  0  0  0  0  0  0  0  0  0
   23.3456   25.6206   11.4347 O   0  0  0  0  0  0  0  0  0  0  0  0
   21.1783   22.3118   10.7747 N   0  0  0  0  0  0  0  0  0  0  0  0
   23.0694   21.3863    9.8979 O   0  0  0  0  0  0  0  0  0  0  0  0
   18.3243   19.8245   10.7498 C   0  0  2  0  0  0  0  0  0  0  0  0
   22.5013   22.3732   10.4356 C   0  0  0  0  0  0  0  0  0  0  0  0
   17.2246   21.5957    9.2485 C   0  0  0  0  0  0  0  0  0  0  0  0
   19.7042   21.0863    9.1268 C   0  0  2  0  0  0  0  0  0  0  0  0
   19.4292   20.5490   11.5285 C   0  0  0  0  0  0  0  0  0  0  0  0
   20.9261   20.2003    9.3508 C   0  0  0  0  0  0  0  0  0  0  0  0
   17.7393   22.8537    9.5968 O   0  0  0  0  0  0  0  0  0  0  0  0
   20.4010   21.0937   10.4804 C   0  0  2  0  0  0  0  0  0  0  0  0
   18.6403   18.4556   10.6157 O   0  0  0  0  0  0  0  0  0  0  0  0
   18.1006   19.7346    8.5718 H   0  0  0  0  0  0  0  0  0  0  0  0
   19.5468   23.3423   11.6645 H   0  0  0  0  0  0  0  0  0  0  0  0
   20.4951   26.5348   11.5484 H   0  0  0  0  0  0  0  0  0  0  0  0
   21.2746   26.1195   13.1277 H   0  0  0  0  0  0  0  0  0  0  0  0
   19.6521   25.4579   12.7276 H   0  0  0  0  0  0  0  0  0  0  0  0
   24.2238   23.5380   10.3819 H   0  0  0  0  0  0  0  0  0  0  0  0
   17.3421   19.9342   11.2667 H   0  0  0  0  0  0  0  0  0  0  0  0
   16.3733   21.3407    9.9186 H   0  0  0  0  0  0  0  0  0  0  0  0
   16.8416   21.6255    8.2036 H   0  0  0  0  0  0  0  0  0  0  0  0
   19.8547   21.9861    8.4915 H   0  0  0  0  0  0  0  0  0  0  0  0
   18.9938   21.3936   12.1047 H   0  0  0  0  0  0  0  0  0  0  0  0
   19.9569   19.8681   12.2300 H   0  0  0  0  0  0  0  0  0  0  0  0
   21.8318   20.5737    8.8280 H   0  0  0  0  0  0  0  0  0  0  0  0
   20.7208   19.1155    9.4438 H   0  0  0  0  0  0  0  0  0  0  0  0
   17.2008   23.5201    9.0963 H   0  0  0  0  0  0  0  0  0  0  0  0
   18.3524   18.1858    9.7047 H   0  0  0  0  0  0  0  0  0  0  0  0
  4  3  1  0
  4  2  2  0
  6  4  1  0
  6  5  1  0
  7  6  2  0
  8  2  1  0
 10  1  1  0
 11  8  1  0
 11  9  2  0
 11  5  1  0
  1 12  1  0
 13  1  1  0
 14 10  1  0
 13 15  1  0
 16 12  1  0
 17 15  1  0
 17 14  1  0
 17 13  1  0
 17  8  1  1
 10 18  1  0
  1 19  1  6
  2 20  1  0
  3 21  1  0
  3 22  1  0
  3 23  1  0
  5 24  1  0
 10 25  1  1
 12 26  1  0
 12 27  1  0
 13 28  1  6
 14 29  1  0
 14 30  1  0
 15 31  1  0
 15 32  1  0
 16 33  1  0
 18 34  1  0
M  END
