
     RDKit          3D

 60 62  0  0  0  0  0  0  0  0999 V2000
   55.2964   13.4865   12.2742 P   0  0  2  0  0  0  0  0  0  0  0  0
   53.3659   14.4849   14.0869 P   0  0  2  0  0  0  0  0  0  0  0  0
   56.9406   17.5210   17.2736 C   0  0  0  0  0  0  0  0  0  0  0  0
   57.3331   16.9089   18.4744 O   0  0  0  0  0  0  0  0  0  0  0  0
   55.5465   17.0408   16.8561 C   0  0  1  0  0  0  0  0  0  0  0  0
   55.5422   15.6122   16.8863 O   0  0  0  0  0  0  0  0  0  0  0  0
   54.4473   17.6377   17.7760 C   0  0  1  0  0  0  0  0  0  0  0  0
   54.3684   19.0272   17.5787 O   0  0  0  0  0  0  0  0  0  0  0  0
   53.0811   17.0046   17.4552 C   0  0  2  0  0  0  0  0  0  0  0  0
   52.0956   17.4258   18.3623 O   0  0  0  0  0  0  0  0  0  0  0  0
   53.2050   15.4667   17.4446 C   0  0  1  0  0  0  0  0  0  0  0  0
   51.9871   14.8316   17.1378 O   0  0  0  0  0  0  0  0  0  0  0  0
   54.3043   15.0754   16.4419 C   0  0  1  0  0  0  0  0  0  0  0  0
   59.1752   17.3505   11.3382 C   0  0  1  0  0  0  0  0  0  0  0  0
   59.7143   17.0480    9.9921 N   0  0  0  0  0  0  0  0  0  0  0  0
   54.3756   13.1348   11.1292 O   0  0  0  0  0  0  0  0  0  0  0  0
   52.1927   13.7884   14.7298 O   0  0  0  0  0  0  0  0  0  0  0  0
   60.2304   15.8049    9.7204 C   0  0  0  0  0  0  0  0  0  0  0  0
   58.1069   18.4605   11.3134 C   0  0  2  0  0  0  0  0  0  0  0  0
   60.2752   14.9156   10.6147 O   0  0  0  0  0  0  0  0  0  0  0  0
   56.5586   12.3834   12.3511 O   0  0  0  0  0  0  0  0  0  0  0  0
   52.8492   15.3469   12.7409 O   0  0  0  0  0  0  0  0  0  0  0  0
   58.5010   19.4906   12.1894 O   0  0  0  0  0  0  0  0  0  0  0  0
   56.8818   17.7388   11.8490 C   0  0  2  0  0  0  0  0  0  0  0  0
   60.6996   15.5137    8.4767 N   0  0  0  0  0  0  0  0  0  0  0  0
   54.5229   13.3001   13.7649 O   0  0  0  0  0  0  0  0  0  0  0  0
   54.0153   15.6107   15.1638 O   0  0  0  0  0  0  0  0  0  0  0  0
   56.0067   18.5791   12.5627 O   0  0  0  0  0  0  0  0  0  0  0  0
   60.6831   16.4321    7.4772 C   0  0  0  0  0  0  0  0  0  0  0  0
   57.5393   16.6548   12.7002 C   0  0  2  0  0  0  0  0  0  0  0  0
   61.1263   16.1249    6.3372 O   0  0  0  0  0  0  0  0  0  0  0  0
   58.6152   16.1918   11.9228 O   0  0  0  0  0  0  0  0  0  0  0  0
   60.1755   17.7082    7.7250 C   0  0  0  0  0  0  0  0  0  0  0  0
   56.6280   15.4999   13.1155 C   0  0  0  0  0  0  0  0  0  0  0  0
   55.9452   15.0215   11.9868 O   0  0  0  0  0  0  0  0  0  0  0  0
   59.6903   17.9968    9.0024 C   0  0  0  0  0  0  0  0  0  0  0  0
   57.6710   17.2889   16.4635 H   0  0  0  0  0  0  0  0  0  0  0  0
   56.9475   18.6233   17.4093 H   0  0  0  0  0  0  0  0  0  0  0  0
   57.6666   17.6285   19.0717 H   0  0  0  0  0  0  0  0  0  0  0  0
   55.3927   17.4155   15.8182 H   0  0  0  0  0  0  0  0  0  0  0  0
   54.7149   17.4137   18.8364 H   0  0  0  0  0  0  0  0  0  0  0  0
   53.4066   19.2700   17.6195 H   0  0  0  0  0  0  0  0  0  0  0  0
   52.7670   17.3563   16.4469 H   0  0  0  0  0  0  0  0  0  0  0  0
   52.0000   18.4096   18.2665 H   0  0  0  0  0  0  0  0  0  0  0  0
   53.5185   15.1208   18.4547 H   0  0  0  0  0  0  0  0  0  0  0  0
   51.2560   15.5021   17.1640 H   0  0  0  0  0  0  0  0  0  0  0  0
   54.4069   13.9672   16.4419 H   0  0  0  0  0  0  0  0  0  0  0  0
   59.9955   17.6644   12.0228 H   0  0  0  0  0  0  0  0  0  0  0  0
   57.9313   18.8517   10.2834 H   0  0  0  0  0  0  0  0  0  0  0  0
   57.0856   12.5442   11.5280 H   0  0  0  0  0  0  0  0  0  0  0  0
   52.6628   16.2608   13.0737 H   0  0  0  0  0  0  0  0  0  0  0  0
   59.4503   19.3174   12.4226 H   0  0  0  0  0  0  0  0  0  0  0  0
   56.3301   17.2866   10.9958 H   0  0  0  0  0  0  0  0  0  0  0  0
   61.0846   14.5599    8.2863 H   0  0  0  0  0  0  0  0  0  0  0  0
   56.4191   18.7963   13.4389 H   0  0  0  0  0  0  0  0  0  0  0  0
   57.9491   17.0965   13.6409 H   0  0  0  0  0  0  0  0  0  0  0  0
   60.1518   18.4598    6.9457 H   0  0  0  0  0  0  0  0  0  0  0  0
   57.2562   14.7258   13.6148 H   0  0  0  0  0  0  0  0  0  0  0  0
   55.8984   15.8993   13.8419 H   0  0  0  0  0  0  0  0  0  0  0  0
   59.2875   18.9831    9.1987 H   0  0  0  0  0  0  0  0  0  0  0  0
  4  3  1  0
  5  3  1  0
  6  5  1  0
  7  5  1  0
  7  8  1  0
  9  7  1  0
  9 10  1  0
 11  9  1  0
 11 12  1  0
 13 11  1  0
 13  6  1  0
 14 15  1  0
 16  1  2  0
 17  2  2  0
 18 15  1  0
 19 14  1  0
 20 18  2  0
  1 21  1  1
  2 22  1  6
 19 23  1  0
 24 19  1  0
 25 18  1  0
 26  2  1  0
 26  1  1  0
 27  2  1  0
 13 27  1  0
 24 28  1  0
 29 25  1  0
 30 24  1  0
 31 29  2  0
 32 14  1  0
 32 30  1  0
 33 29  1  0
 30 34  1  0
 35 34  1  0
 35  1  1  0
 36 33  2  0
 36 15  1  0
  3 37  1  0
  3 38  1  0
  4 39  1  0
  5 40  1  6
  7 41  1  1
  8 42  1  0
  9 43  1  6
 10 44  1  0
 11 45  1  1
 12 46  1  0
 13 47  1  6
 14 48  1  1
 19 49  1  6
 21 50  1  0
 22 51  1  0
 23 52  1  0
 24 53  1  6
 25 54  1  0
 28 55  1  0
 30 56  1  1
 33 57  1  0
 34 58  1  0
 34 59  1  0
 36 60  1  0
M  END
