
     RDKit          3D

 19 18  0  0  0  0  0  0  0  0999 V2000
 -130.9904   27.7055  127.8370 P   0  0  0  0  0  0  0  0  0  0  0  0
 -131.9315   28.9270  126.9108 C   0  0  0  0  0  0  0  0  0  0  0  0
 -131.0585   30.0357  126.5359 N   0  0  0  0  0  0  0  0  0  0  0  0
 -130.4469   28.3008  129.1139 O   0  0  0  0  0  0  0  0  0  0  0  0
 -131.8475   31.2039  126.1356 C   0  0  0  0  0  0  0  0  0  0  0  0
 -129.7420   27.1930  126.8505 O   0  0  0  0  0  0  0  0  0  0  0  0
 -132.9285   31.4910  127.1267 C   0  0  0  0  0  0  0  0  0  0  0  0
 -131.9993   26.4132  128.1903 O   0  0  0  0  0  0  0  0  0  0  0  0
 -133.0065   30.8608  128.2157 O   0  0  0  0  0  0  0  0  0  0  0  0
 -133.8439   32.4816  126.8340 O   0  0  0  0  0  0  0  0  0  0  0  0
 -132.7754   29.2802  127.5438 H   0  0  0  0  0  0  0  0  0  0  0  0
 -132.3423   28.4402  125.9987 H   0  0  0  0  0  0  0  0  0  0  0  0
 -130.4565   30.2945  127.3540 H   0  0  0  0  0  0  0  0  0  0  0  0
 -130.4562   29.7344  125.7330 H   0  0  0  0  0  0  0  0  0  0  0  0
 -131.1948   32.1023  126.0631 H   0  0  0  0  0  0  0  0  0  0  0  0
 -132.3188   31.0264  125.1431 H   0  0  0  0  0  0  0  0  0  0  0  0
 -129.6442   26.2262  127.0426 H   0  0  0  0  0  0  0  0  0  0  0  0
 -131.7343   25.7024  127.5534 H   0  0  0  0  0  0  0  0  0  0  0  0
 -134.7355   32.5240  127.3132 H   0  0  0  0  0  0  0  0  0  0  0  0
  2  1  1  0
  3  2  1  0
  4  1  2  0
  5  3  1  0
  6  1  1  0
  7  5  1  0
  8  1  1  0
  9  7  2  0
 10  7  1  0
  2 11  1  0
  2 12  1  0
  3 13  1  0
  3 14  1  0
  5 15  1  0
  5 16  1  0
  6 17  1  0
  8 18  1  0
 10 19  1  0
M  CHG  1   3   1
M  END
