
     RDKit          3D

 85 87  0  0  0  0  0  0  0  0999 V2000
   34.3901   14.6834   18.8623 P   0  0  2  0  0  0  0  0  0  0  0  0
   34.4228   12.6979   16.8753 P   0  0  1  0  0  0  0  0  0  0  0  0
   29.7476   11.3435   20.1036 C   0  0  0  0  0  0  0  0  0  0  0  0
   29.8341   11.3770   18.6174 C   0  0  0  0  0  0  0  0  0  0  0  0
   28.9272   11.9431   17.9480 O   0  0  0  0  0  0  0  0  0  0  0  0
   32.5457   11.0775   12.5615 C   0  0  0  0  0  0  0  0  0  0  0  0
   31.2851   11.5816   12.1966 O   0  0  0  0  0  0  0  0  0  0  0  0
   32.5902   10.7886   14.0677 C   0  0  1  0  0  0  0  0  0  0  0  0
   32.1835   11.9735   14.7427 O   0  0  0  0  0  0  0  0  0  0  0  0
   31.6874    9.5745   14.4303 C   0  0  1  0  0  0  0  0  0  0  0  0
   32.1729    8.3912   13.8470 O   0  0  0  0  0  0  0  0  0  0  0  0
   31.5542    9.4032   15.9553 C   0  0  2  0  0  0  0  0  0  0  0  0
   30.5933    8.3946   16.1866 O   0  0  0  0  0  0  0  0  0  0  0  0
   31.0953   10.7624   16.5177 C   0  0  1  0  0  0  0  0  0  0  0  0
   30.9265   10.7277   17.9660 N   0  0  0  0  0  0  0  0  0  0  0  0
   30.6647   15.3943   23.5279 O   0  0  0  0  0  0  0  0  0  0  0  0
   32.1520   11.8084   16.1447 C   0  0  1  0  0  0  0  0  0  0  0  0
   33.4273   11.3778   16.5979 O   0  0  0  0  0  0  0  0  0  0  0  0
   32.9602   16.2109   23.3051 C   0  0  1  0  0  0  0  0  0  0  0  0
   32.8826   17.5798   22.7536 N   0  0  0  0  0  0  0  0  0  0  0  0
   34.1108   16.0276   18.2248 O   0  0  0  0  0  0  0  0  0  0  0  0
   35.7461   12.1857   17.3963 O   0  0  0  0  0  0  0  0  0  0  0  0
   32.6154   18.6568   23.5648 C   0  0  0  0  0  0  0  0  0  0  0  0
   31.8476   15.3061   22.7764 C   0  0  1  0  0  0  0  0  0  0  0  0
   32.3946   18.4964   24.7967 O   0  0  0  0  0  0  0  0  0  0  0  0
   36.0380   14.3936   19.0108 O   0  0  0  0  0  0  0  0  0  0  0  0
   34.5849   13.5851   15.4600 O   0  0  0  0  0  0  0  0  0  0  0  0
   32.4873   13.9400   22.8872 C   0  0  2  0  0  0  0  0  0  0  0  0
   32.5858   19.9149   23.0463 N   0  0  0  0  0  0  0  0  0  0  0  0
   33.5501   13.4745   18.0717 O   0  0  0  0  0  0  0  0  0  0  0  0
   32.2509   13.3454   24.1441 O   0  0  0  0  0  0  0  0  0  0  0  0
   32.8284   20.1358   21.7286 C   0  0  0  0  0  0  0  0  0  0  0  0
   33.9810   14.2529   22.7046 C   0  0  2  0  0  0  0  0  0  0  0  0
   28.4204    8.3321   17.7243 N   0  0  0  0  0  0  0  0  0  0  0  0
   32.8091   21.3077   21.2710 O   0  0  0  0  0  0  0  0  0  0  0  0
   34.1970   15.6290   22.9557 O   0  0  0  0  0  0  0  0  0  0  0  0
   33.0996   19.0677   20.8840 C   0  0  0  0  0  0  0  0  0  0  0  0
   34.4637   13.9322   21.2907 C   0  0  0  0  0  0  0  0  0  0  0  0
   33.6616   14.6548   20.3806 O   0  0  0  0  0  0  0  0  0  0  0  0
   33.1238   17.7884   21.4220 C   0  0  0  0  0  0  0  0  0  0  0  0
   30.8221    7.6425   17.3698 C   0  0  1  0  0  0  0  0  0  0  0  0
   29.5986    7.1793   19.3693 O   0  0  0  0  0  0  0  0  0  0  0  0
   29.5973    7.7025   18.2224 C   0  0  0  0  0  0  0  0  0  0  0  0
   25.5419    6.5203   19.0876 O   0  0  0  0  0  0  0  0  0  0  0  0
   31.0741    6.1889   16.9799 C   0  0  0  0  0  0  0  0  0  0  0  0
   26.8131    6.2569   17.2057 O   0  0  0  0  0  0  0  0  0  0  0  0
   27.1714    8.2765   18.4565 C   0  0  2  0  0  0  0  0  0  0  0  0
   26.5106    6.9590   18.2084 C   0  0  0  0  0  0  0  0  0  0  0  0
   26.2701    9.4258   18.0179 C   0  0  0  0  0  0  0  0  0  0  0  0
   28.9769   10.6058   20.4097 H   0  0  0  0  0  0  0  0  0  0  0  0
   30.7200   11.0538   20.5523 H   0  0  0  0  0  0  0  0  0  0  0  0
   29.4653   12.3470   20.4855 H   0  0  0  0  0  0  0  0  0  0  0  0
   32.7461   10.1499   11.9845 H   0  0  0  0  0  0  0  0  0  0  0  0
   33.3472   11.8060   12.2975 H   0  0  0  0  0  0  0  0  0  0  0  0
   31.1393   11.3377   11.2453 H   0  0  0  0  0  0  0  0  0  0  0  0
   33.6491   10.5515   14.3191 H   0  0  0  0  0  0  0  0  0  0  0  0
   30.6706    9.7583   14.0155 H   0  0  0  0  0  0  0  0  0  0  0  0
   33.0849    8.2302   14.2054 H   0  0  0  0  0  0  0  0  0  0  0  0
   32.5579    9.1186   16.3518 H   0  0  0  0  0  0  0  0  0  0  0  0
   30.1313   11.0352   16.0308 H   0  0  0  0  0  0  0  0  0  0  0  0
   31.7009   10.3353   18.5482 H   0  0  0  0  0  0  0  0  0  0  0  0
   30.2736   16.2843   23.3277 H   0  0  0  0  0  0  0  0  0  0  0  0
   31.8026   12.7773   16.5741 H   0  0  0  0  0  0  0  0  0  0  0  0
   32.9096   16.2247   24.4166 H   0  0  0  0  0  0  0  0  0  0  0  0
   31.6264   15.5185   21.7056 H   0  0  0  0  0  0  0  0  0  0  0  0
   36.3668   15.1081   19.6124 H   0  0  0  0  0  0  0  0  0  0  0  0
   33.6969   13.5297   15.0250 H   0  0  0  0  0  0  0  0  0  0  0  0
   32.0920   13.2619   22.1006 H   0  0  0  0  0  0  0  0  0  0  0  0
   32.3808   20.7261   23.6739 H   0  0  0  0  0  0  0  0  0  0  0  0
   32.6330   13.9285   24.8510 H   0  0  0  0  0  0  0  0  0  0  0  0
   34.5917   13.6568   23.4185 H   0  0  0  0  0  0  0  0  0  0  0  0
   28.3983    8.7443   16.7645 H   0  0  0  0  0  0  0  0  0  0  0  0
   33.2960   19.2241   19.8303 H   0  0  0  0  0  0  0  0  0  0  0  0
   35.5392   14.2187   21.2205 H   0  0  0  0  0  0  0  0  0  0  0  0
   34.3611   12.8387   21.1161 H   0  0  0  0  0  0  0  0  0  0  0  0
   33.3474   16.9712   20.7624 H   0  0  0  0  0  0  0  0  0  0  0  0
   31.6827    7.9979   17.9822 H   0  0  0  0  0  0  0  0  0  0  0  0
   25.0710    5.6350   18.9435 H   0  0  0  0  0  0  0  0  0  0  0  0
   31.2577    5.5674   17.8827 H   0  0  0  0  0  0  0  0  0  0  0  0
   30.2052    5.7764   16.4222 H   0  0  0  0  0  0  0  0  0  0  0  0
   31.9722    6.1306   16.3290 H   0  0  0  0  0  0  0  0  0  0  0  0
   27.3645    8.3931   19.5460 H   0  0  0  0  0  0  0  0  0  0  0  0
   25.3187    9.4044   18.5915 H   0  0  0  0  0  0  0  0  0  0  0  0
   26.7696   10.3967   18.2149 H   0  0  0  0  0  0  0  0  0  0  0  0
   26.0351    9.3532   16.9338 H   0  0  0  0  0  0  0  0  0  0  0  0
  4  3  1  0
  5  4  2  0
  7  6  1  0
  8  6  1  0
  9  8  1  0
 10  8  1  0
 10 11  1  0
 12 10  1  0
 12 13  1  0
 14 12  1  0
 14 15  1  0
 15  4  1  0
 17 14  1  0
 17  9  1  0
 17 18  1  0
  2 18  1  6
 19 20  1  0
 21  1  2  0
 22  2  2  0
 23 20  1  0
 24 16  1  0
 24 19  1  0
 25 23  2  0
  1 26  1  1
 27  2  1  0
 28 24  1  0
 29 23  1  0
 30  2  1  0
 30  1  1  0
 28 31  1  0
 32 29  1  0
 33 28  1  0
 35 32  2  0
 36 33  1  0
 36 19  1  0
 37 32  1  0
 33 38  1  0
 39 38  1  0
 39  1  1  0
 40 37  2  0
 40 20  1  0
 41 13  1  0
 43 41  1  0
 43 34  1  0
 43 42  2  0
 41 45  1  0
 47 34  1  0
 48 46  2  0
 48 47  1  0
 48 44  1  0
 47 49  1  0
  3 50  1  0
  3 51  1  0
  3 52  1  0
  6 53  1  0
  6 54  1  0
  7 55  1  0
  8 56  1  1
 10 57  1  6
 11 58  1  0
 12 59  1  1
 14 60  1  6
 15 61  1  0
 16 62  1  0
 17 63  1  1
 19 64  1  1
 24 65  1  6
 26 66  1  0
 27 67  1  0
 28 68  1  6
 29 69  1  0
 31 70  1  0
 33 71  1  1
 34 72  1  0
 37 73  1  0
 38 74  1  0
 38 75  1  0
 40 76  1  0
 41 77  1  1
 44 78  1  0
 45 79  1  0
 45 80  1  0
 45 81  1  0
 47 82  1  1
 49 83  1  0
 49 84  1  0
 49 85  1  0
M  END
