
     RDKit          3D

 20 20  0  0  0  0  0  0  0  0999 V2000
   13.9597   -0.8624    4.5906 C   0  0  0  0  0  0  0  0  0  0  0  0
   15.3584   -1.4320    4.5919 C   0  0  0  0  0  0  0  0  0  0  0  0
   16.1117   -1.3849    3.4075 C   0  0  0  0  0  0  0  0  0  0  0  0
   17.4003   -1.9080    3.3822 C   0  0  0  0  0  0  0  0  0  0  0  0
   17.9388   -2.4791    4.5327 C   0  0  0  0  0  0  0  0  0  0  0  0
   19.2558   -3.0230    4.5143 N   0  0  0  0  0  0  0  0  0  0  0  0
   17.1712   -2.5161    5.7017 C   0  0  0  0  0  0  0  0  0  0  0  0
   15.9003   -2.0014    5.7248 N   0  0  0  0  0  0  0  0  0  0  0  0
   15.1285   -2.0673    6.9768 C   0  0  0  0  0  0  0  0  0  0  0  0
   13.2631   -1.5727    5.0822 H   0  0  0  0  0  0  0  0  0  0  0  0
   13.9450    0.1063    5.1317 H   0  0  0  0  0  0  0  0  0  0  0  0
   13.5909   -0.6806    3.5586 H   0  0  0  0  0  0  0  0  0  0  0  0
   15.7035   -0.9450    2.5059 H   0  0  0  0  0  0  0  0  0  0  0  0
   17.9763   -1.8693    2.4660 H   0  0  0  0  0  0  0  0  0  0  0  0
   19.7327   -3.3005    5.4011 H   0  0  0  0  0  0  0  0  0  0  0  0
   19.7685   -3.1539    3.6137 H   0  0  0  0  0  0  0  0  0  0  0  0
   17.5986   -2.9630    6.5920 H   0  0  0  0  0  0  0  0  0  0  0  0
   14.8329   -3.1091    7.2274 H   0  0  0  0  0  0  0  0  0  0  0  0
   14.1978   -1.4693    6.8822 H   0  0  0  0  0  0  0  0  0  0  0  0
   15.7384   -1.6786    7.8193 H   0  0  0  0  0  0  0  0  0  0  0  0
  2  1  1  0
  3  2  2  0
  4  3  1  0
  5  4  2  0
  6  5  1  0
  7  5  1  0
  8  2  1  0
  8  7  2  0
  9  8  1  0
  1 10  1  0
  1 11  1  0
  1 12  1  0
  3 13  1  0
  4 14  1  0
  6 15  1  0
  6 16  1  0
  7 17  1  0
  9 18  1  0
  9 19  1  0
  9 20  1  0
M  CHG  1   8   1
M  END
