
     RDKit          3D

 20 20  0  0  0  0  0  0  0  0999 V2000
   13.1775   -0.8534    3.4049 C   0  0  0  0  0  0  0  0  0  0  0  0
   14.5762   -1.4231    3.4062 C   0  0  0  0  0  0  0  0  0  0  0  0
   15.2563   -1.5558    2.1846 C   0  0  0  0  0  0  0  0  0  0  0  0
   16.5433   -2.0828    2.1594 C   0  0  0  0  0  0  0  0  0  0  0  0
   17.1529   -2.4793    3.3473 C   0  0  0  0  0  0  0  0  0  0  0  0
   18.4688   -3.0261    3.3301 N   0  0  0  0  0  0  0  0  0  0  0  0
   16.4576   -2.3388    4.5530 C   0  0  0  0  0  0  0  0  0  0  0  0
   15.1881   -1.8205    4.5762 N   0  0  0  0  0  0  0  0  0  0  0  0
   14.4938   -1.6963    5.8684 C   0  0  0  0  0  0  0  0  0  0  0  0
   12.4810   -1.5638    3.8965 H   0  0  0  0  0  0  0  0  0  0  0  0
   13.1629    0.1152    3.9460 H   0  0  0  0  0  0  0  0  0  0  0  0
   12.8088   -0.6717    2.3729 H   0  0  0  0  0  0  0  0  0  0  0  0
   14.7924   -1.2527    1.2540 H   0  0  0  0  0  0  0  0  0  0  0  0
   17.0627   -2.1833    1.2145 H   0  0  0  0  0  0  0  0  0  0  0  0
   18.9661   -3.2518    4.2205 H   0  0  0  0  0  0  0  0  0  0  0  0
   18.9601   -3.2109    2.4271 H   0  0  0  0  0  0  0  0  0  0  0  0
   16.9400   -2.6506    5.4723 H   0  0  0  0  0  0  0  0  0  0  0  0
   14.9877   -2.2952    6.6639 H   0  0  0  0  0  0  0  0  0  0  0  0
   13.4489   -2.0605    5.7757 H   0  0  0  0  0  0  0  0  0  0  0  0
   14.4920   -0.6359    6.1978 H   0  0  0  0  0  0  0  0  0  0  0  0
  2  1  1  0
  3  2  2  0
  4  3  1  0
  5  4  2  0
  6  5  1  0
  7  5  1  0
  8  2  1  0
  8  7  2  0
  9  8  1  0
  1 10  1  0
  1 11  1  0
  1 12  1  0
  3 13  1  0
  4 14  1  0
  6 15  1  0
  6 16  1  0
  7 17  1  0
  9 18  1  0
  9 19  1  0
  9 20  1  0
M  CHG  1   8   1
M  END
