
     RDKit          3D

 36 38  0  0  0  0  0  0  0  0999 V2000
   35.4314   43.7075   40.5386 C   0  0  0  0  0  0  0  0  0  0  0  0
   35.0253   41.2225   40.4948 C   0  0  0  0  0  0  0  0  0  0  0  0
   33.8999   41.2065   39.6568 O   0  0  0  0  0  0  0  0  0  0  0  0
   35.9694   42.3527   40.0560 C   0  0  2  0  0  0  0  0  0  0  0  0
   37.3530   42.2229   40.6984 C   0  0  1  0  0  0  0  0  0  0  0  0
   38.3307   42.7812   39.8535 O   0  0  0  0  0  0  0  0  0  0  0  0
   37.2303   43.0699   41.9452 C   0  0  0  0  0  0  0  0  0  0  0  0
   36.3641   44.1943   41.5729 N   0  0  2  0  0  0  0  0  0  0  0  0
   31.5655   42.1983   44.6897 N   0  0  0  0  0  0  0  0  0  0  0  0
   32.8919   41.8495   44.7524 C   0  0  0  0  0  0  0  0  0  0  0  0
   33.8531   42.6380   44.1785 N   0  0  0  0  0  0  0  0  0  0  0  0
   33.4781   43.7677   43.5259 C   0  0  0  0  0  0  0  0  0  0  0  0
   32.1667   44.1466   43.4547 C   0  0  0  0  0  0  0  0  0  0  0  0
   31.1739   43.3456   44.0515 C   0  0  0  0  0  0  0  0  0  0  0  0
   29.9552   43.6662   44.0090 O   0  0  0  0  0  0  0  0  0  0  0  0
   32.0531   45.3131   42.7866 N   0  0  0  0  0  0  0  0  0  0  0  0
   33.3122   45.6777   42.4300 C   0  0  0  0  0  0  0  0  0  0  0  0
   34.2446   44.7340   42.8684 C   0  0  0  0  0  0  0  0  0  0  0  0
   35.7507   44.8720   42.7386 C   0  0  0  0  0  0  0  0  0  0  0  0
   35.4163   44.4185   39.6810 H   0  0  0  0  0  0  0  0  0  0  0  0
   34.3832   43.6446   40.8949 H   0  0  0  0  0  0  0  0  0  0  0  0
   35.5522   40.2419   40.4508 H   0  0  0  0  0  0  0  0  0  0  0  0
   34.6874   41.3817   41.5418 H   0  0  0  0  0  0  0  0  0  0  0  0
   34.2390   41.2076   38.7236 H   0  0  0  0  0  0  0  0  0  0  0  0
   36.0558   42.3371   38.9459 H   0  0  0  0  0  0  0  0  0  0  0  0
   37.6071   41.1641   40.9424 H   0  0  0  0  0  0  0  0  0  0  0  0
   37.8826   42.9745   38.9888 H   0  0  0  0  0  0  0  0  0  0  0  0
   36.7775   42.4486   42.7358 H   0  0  0  0  0  0  0  0  0  0  0  0
   38.2243   43.4242   42.3014 H   0  0  0  0  0  0  0  0  0  0  0  0
   36.9883   44.9053   41.1177 H   0  0  0  0  0  0  0  0  0  0  0  0
   30.8524   41.5816   45.1403 H   0  0  0  0  0  0  0  0  0  0  0  0
   33.1858   40.9442   45.2670 H   0  0  0  0  0  0  0  0  0  0  0  0
   31.1738   45.8406   42.5902 H   0  0  0  0  0  0  0  0  0  0  0  0
   33.5448   46.5897   41.8957 H   0  0  0  0  0  0  0  0  0  0  0  0
   36.2189   44.5051   43.6791 H   0  0  0  0  0  0  0  0  0  0  0  0
   35.9918   45.9576   42.6869 H   0  0  0  0  0  0  0  0  0  0  0  0
  3  2  1  0
  4  2  1  0
  4  1  1  0
  5  4  1  0
  5  6  1  0
  7  5  1  0
  8  7  1  0
  8  1  1  0
 10  9  1  0
 11 10  2  0
 12 11  1  0
 13 12  2  0
 14  9  1  0
 14 13  1  0
 15 14  2  0
 16 13  1  0
 17 16  1  0
 18 17  2  0
 18 12  1  0
 19 18  1  0
 19  8  1  0
  1 20  1  0
  1 21  1  0
  2 22  1  0
  2 23  1  0
  3 24  1  0
  4 25  1  6
  5 26  1  1
  6 27  1  0
  7 28  1  0
  7 29  1  0
  8 30  1  6
  9 31  1  0
 10 32  1  0
 16 33  1  0
 17 34  1  0
 19 35  1  0
 19 36  1  0
M  CHG  1   8   1
M  END
