
     RDKit          3D

 36 38  0  0  0  0  0  0  0  0999 V2000
   34.7677   46.3824  134.4284 C   0  0  0  0  0  0  0  0  0  0  0  0
   34.2954   44.5789  132.6889 C   0  0  0  0  0  0  0  0  0  0  0  0
   33.0077   45.1382  132.6585 O   0  0  0  0  0  0  0  0  0  0  0  0
   35.3148   45.6062  133.2172 C   0  0  2  0  0  0  0  0  0  0  0  0
   36.5820   44.9203  133.7387 C   0  0  1  0  0  0  0  0  0  0  0  0
   37.6901   45.7639  133.5376 O   0  0  0  0  0  0  0  0  0  0  0  0
   36.3171   44.7844  135.2255 C   0  0  0  0  0  0  0  0  0  0  0  0
   35.5788   45.9953  135.5998 N   0  0  2  0  0  0  0  0  0  0  0  0
   29.9715   46.0092  139.0091 N   0  0  0  0  0  0  0  0  0  0  0  0
   30.9766   45.1061  139.2469 C   0  0  0  0  0  0  0  0  0  0  0  0
   32.1776   45.2111  138.6040 N   0  0  0  0  0  0  0  0  0  0  0  0
   32.3575   46.2036  137.6991 C   0  0  0  0  0  0  0  0  0  0  0  0
   31.3795   47.1241  137.4418 C   0  0  0  0  0  0  0  0  0  0  0  0
   30.1430   47.0343  138.1176 C   0  0  0  0  0  0  0  0  0  0  0  0
   29.2117   47.8633  137.9233 O   0  0  0  0  0  0  0  0  0  0  0  0
   31.8134   48.0156  136.5262 N   0  0  0  0  0  0  0  0  0  0  0  0
   33.0826   47.6499  136.2043 C   0  0  0  0  0  0  0  0  0  0  0  0
   33.4670   46.5114  136.9153 C   0  0  0  0  0  0  0  0  0  0  0  0
   34.8439   45.8737  136.8808 C   0  0  0  0  0  0  0  0  0  0  0  0
   34.8752   47.4753  134.2416 H   0  0  0  0  0  0  0  0  0  0  0  0
   33.6835   46.2061  134.5720 H   0  0  0  0  0  0  0  0  0  0  0  0
   34.5899   44.2656  131.6623 H   0  0  0  0  0  0  0  0  0  0  0  0
   34.2883   43.6793  133.3460 H   0  0  0  0  0  0  0  0  0  0  0  0
   32.5819   44.8036  131.8270 H   0  0  0  0  0  0  0  0  0  0  0  0
   35.5639   46.3090  132.3901 H   0  0  0  0  0  0  0  0  0  0  0  0
   36.7556   43.9283  133.2582 H   0  0  0  0  0  0  0  0  0  0  0  0
   38.3102   45.6042  134.2965 H   0  0  0  0  0  0  0  0  0  0  0  0
   35.7207   43.8734  135.3789 H   0  0  0  0  0  0  0  0  0  0  0  0
   37.2636   44.6915  135.8048 H   0  0  0  0  0  0  0  0  0  0  0  0
   36.2983   46.7463  135.7434 H   0  0  0  0  0  0  0  0  0  0  0  0
   29.0667   45.9113  139.5226 H   0  0  0  0  0  0  0  0  0  0  0  0
   30.8251   44.3084  139.9622 H   0  0  0  0  0  0  0  0  0  0  0  0
   31.2846   48.8309  136.1444 H   0  0  0  0  0  0  0  0  0  0  0  0
   33.7031   48.1901  135.5011 H   0  0  0  0  0  0  0  0  0  0  0  0
   34.7412   44.8009  137.1573 H   0  0  0  0  0  0  0  0  0  0  0  0
   35.4552   46.3362  137.6880 H   0  0  0  0  0  0  0  0  0  0  0  0
  3  2  1  0
  4  2  1  0
  4  1  1  0
  5  4  1  0
  5  6  1  0
  7  5  1  0
  8  7  1  0
  8  1  1  0
 10  9  1  0
 11 10  2  0
 12 11  1  0
 13 12  2  0
 14 13  1  0
 14  9  1  0
 15 14  2  0
 16 13  1  0
 17 16  1  0
 18 17  2  0
 18 12  1  0
 19 18  1  0
 19  8  1  0
  1 20  1  0
  1 21  1  0
  2 22  1  0
  2 23  1  0
  3 24  1  0
  4 25  1  6
  5 26  1  6
  6 27  1  0
  7 28  1  0
  7 29  1  0
  8 30  1  1
  9 31  1  0
 10 32  1  0
 16 33  1  0
 17 34  1  0
 19 35  1  0
 19 36  1  0
M  CHG  1   8   1
M  END
