
     RDKit          3D

 36 38  0  0  0  0  0  0  0  0999 V2000
   52.8438   19.9096   86.6518 C   0  0  0  0  0  0  0  0  0  0  0  0
   52.7999   17.8518   85.1639 C   0  0  0  0  0  0  0  0  0  0  0  0
   54.1104   17.5503   85.5599 O   0  0  0  0  0  0  0  0  0  0  0  0
   52.0826   18.6227   86.2845 C   0  0  2  0  0  0  0  0  0  0  0  0
   50.7094   19.1066   85.8270 C   0  0  1  0  0  0  0  0  0  0  0  0
   49.8595   19.2008   86.9438 O   0  0  0  0  0  0  0  0  0  0  0  0
   51.0008   20.4974   85.2955 C   0  0  0  0  0  0  0  0  0  0  0  0
   52.0144   21.0468   86.2009 N   0  0  2  0  0  0  0  0  0  0  0  0
   56.0999   22.1637   81.4768 N   0  0  0  0  0  0  0  0  0  0  0  0
   54.7463   22.4035   81.4596 C   0  0  0  0  0  0  0  0  0  0  0  0
   54.0048   22.3558   82.6122 N   0  0  0  0  0  0  0  0  0  0  0  0
   54.6287   22.0580   83.7804 C   0  0  0  0  0  0  0  0  0  0  0  0
   55.9777   21.8239   83.8284 C   0  0  0  0  0  0  0  0  0  0  0  0
   56.7455   21.8790   82.6501 C   0  0  0  0  0  0  0  0  0  0  0  0
   57.9920   21.6780   82.6618 O   0  0  0  0  0  0  0  0  0  0  0  0
   56.3653   21.5820   85.0956 N   0  0  0  0  0  0  0  0  0  0  0  0
   55.2479   21.6649   85.8621 C   0  0  0  0  0  0  0  0  0  0  0  0
   54.1252   21.9509   85.0819 C   0  0  0  0  0  0  0  0  0  0  0  0
   52.7344   22.2149   85.6349 C   0  0  0  0  0  0  0  0  0  0  0  0
   52.9764   19.9545   87.7568 H   0  0  0  0  0  0  0  0  0  0  0  0
   53.8643   19.9181   86.2207 H   0  0  0  0  0  0  0  0  0  0  0  0
   52.2462   16.9147   84.9262 H   0  0  0  0  0  0  0  0  0  0  0  0
   52.8447   18.4645   84.2377 H   0  0  0  0  0  0  0  0  0  0  0  0
   54.2004   16.5624   85.5186 H   0  0  0  0  0  0  0  0  0  0  0  0
   51.9865   17.9569   87.1721 H   0  0  0  0  0  0  0  0  0  0  0  0
   50.2604   18.4493   85.0455 H   0  0  0  0  0  0  0  0  0  0  0  0
   49.1943   19.9076   86.7349 H   0  0  0  0  0  0  0  0  0  0  0  0
   51.3894   20.4180   84.2581 H   0  0  0  0  0  0  0  0  0  0  0  0
   50.0837   21.1291   85.2834 H   0  0  0  0  0  0  0  0  0  0  0  0
   51.4946   21.4036   87.0405 H   0  0  0  0  0  0  0  0  0  0  0  0
   56.6386   22.2097   80.5827 H   0  0  0  0  0  0  0  0  0  0  0  0
   54.2551   22.6354   80.5237 H   0  0  0  0  0  0  0  0  0  0  0  0
   57.3349   21.3847   85.4289 H   0  0  0  0  0  0  0  0  0  0  0  0
   55.2481   21.5381   86.9369 H   0  0  0  0  0  0  0  0  0  0  0  0
   52.1228   22.6852   84.8330 H   0  0  0  0  0  0  0  0  0  0  0  0
   52.8290   22.9913   86.4272 H   0  0  0  0  0  0  0  0  0  0  0  0
  3  2  1  0
  4  2  1  0
  4  1  1  0
  5  4  1  0
  5  6  1  0
  7  5  1  0
  8  7  1  0
  8  1  1  0
 10  9  1  0
 11 10  2  0
 12 11  1  0
 13 12  2  0
 14 13  1  0
 14  9  1  0
 15 14  2  0
 16 13  1  0
 17 16  1  0
 18 17  2  0
 18 12  1  0
 19 18  1  0
 19  8  1  0
  1 20  1  0
  1 21  1  0
  2 22  1  0
  2 23  1  0
  3 24  1  0
  4 25  1  1
  5 26  1  6
  6 27  1  0
  7 28  1  0
  7 29  1  0
  8 30  1  1
  9 31  1  0
 10 32  1  0
 16 33  1  0
 17 34  1  0
 19 35  1  0
 19 36  1  0
M  CHG  1   8   1
M  END
