
     RDKit          3D

 36 38  0  0  0  0  0  0  0  0999 V2000
   51.2643   30.9855   41.0462 C   0  0  0  0  0  0  0  0  0  0  0  0
   51.7168   33.4871   40.9725 C   0  0  0  0  0  0  0  0  0  0  0  0
   52.9161   33.1542   40.3297 O   0  0  0  0  0  0  0  0  0  0  0  0
   50.6772   32.3789   40.7441 C   0  0  2  0  0  0  0  0  0  0  0  0
   49.5140   32.5202   41.7241 C   0  0  1  0  0  0  0  0  0  0  0  0
   48.3549   31.9750   41.1426 O   0  0  0  0  0  0  0  0  0  0  0  0
   49.9505   31.6497   42.8887 C   0  0  0  0  0  0  0  0  0  0  0  0
   50.5974   30.4910   42.2676 N   0  0  2  0  0  0  0  0  0  0  0  0
   54.7812   32.1221   46.5502 N   0  0  0  0  0  0  0  0  0  0  0  0
   53.4243   31.9527   46.7000 C   0  0  0  0  0  0  0  0  0  0  0  0
   52.6842   31.3238   45.7325 N   0  0  0  0  0  0  0  0  0  0  0  0
   53.3136   30.8782   44.6136 C   0  0  0  0  0  0  0  0  0  0  0  0
   54.6635   31.0209   44.4448 C   0  0  0  0  0  0  0  0  0  0  0  0
   55.4286   31.6589   45.4337 C   0  0  0  0  0  0  0  0  0  0  0  0
   56.6763   31.8051   45.3054 O   0  0  0  0  0  0  0  0  0  0  0  0
   55.0530   30.4790   43.2734 N   0  0  0  0  0  0  0  0  0  0  0  0
   53.9336   29.9765   42.6934 C   0  0  0  0  0  0  0  0  0  0  0  0
   52.8135   30.2107   43.4946 C   0  0  0  0  0  0  0  0  0  0  0  0
   51.4192   29.6915   43.2102 C   0  0  0  0  0  0  0  0  0  0  0  0
   51.0470   30.3021   40.1939 H   0  0  0  0  0  0  0  0  0  0  0  0
   52.3674   31.0152   41.1431 H   0  0  0  0  0  0  0  0  0  0  0  0
   51.3276   34.4455   40.5613 H   0  0  0  0  0  0  0  0  0  0  0  0
   51.9109   33.6205   42.0610 H   0  0  0  0  0  0  0  0  0  0  0  0
   53.6195   33.7132   40.7513 H   0  0  0  0  0  0  0  0  0  0  0  0
   50.3192   32.4343   39.6912 H   0  0  0  0  0  0  0  0  0  0  0  0
   49.3390   33.5770   42.0361 H   0  0  0  0  0  0  0  0  0  0  0  0
   47.8415   31.5507   41.8788 H   0  0  0  0  0  0  0  0  0  0  0  0
   50.6616   32.2150   43.5258 H   0  0  0  0  0  0  0  0  0  0  0  0
   49.0816   31.3415   43.5132 H   0  0  0  0  0  0  0  0  0  0  0  0
   49.8202   29.8567   41.9572 H   0  0  0  0  0  0  0  0  0  0  0  0
   55.3219   32.6038   47.3034 H   0  0  0  0  0  0  0  0  0  0  0  0
   52.9322   32.3170   47.5922 H   0  0  0  0  0  0  0  0  0  0  0  0
   56.0240   30.4375   42.8919 H   0  0  0  0  0  0  0  0  0  0  0  0
   53.9308   29.4533   41.7460 H   0  0  0  0  0  0  0  0  0  0  0  0
   50.8830   29.5788   44.1788 H   0  0  0  0  0  0  0  0  0  0  0  0
   51.5202   28.6590   42.8062 H   0  0  0  0  0  0  0  0  0  0  0  0
  3  2  1  0
  4  1  1  0
  4  2  1  0
  5  4  1  0
  5  6  1  0
  7  5  1  0
  8  7  1  0
  8  1  1  0
 10  9  1  0
 11 10  2  0
 12 11  1  0
 13 12  2  0
 14 13  1  0
 14  9  1  0
 15 14  2  0
 16 13  1  0
 17 16  1  0
 18 17  2  0
 18 12  1  0
 19 18  1  0
 19  8  1  0
  1 20  1  0
  1 21  1  0
  2 22  1  0
  2 23  1  0
  3 24  1  0
  4 25  1  6
  5 26  1  1
  6 27  1  0
  7 28  1  0
  7 29  1  0
  8 30  1  6
  9 31  1  0
 10 32  1  0
 16 33  1  0
 17 34  1  0
 19 35  1  0
 19 36  1  0
M  CHG  1   8   1
M  END
