
     RDKit          3D

 36 38  0  0  0  0  0  0  0  0999 V2000
   51.0967   63.5939   73.4312 C   0  0  0  0  0  0  0  0  0  0  0  0
   51.6539   62.0629   75.3856 C   0  0  0  0  0  0  0  0  0  0  0  0
   52.6623   62.9455   75.7980 O   0  0  0  0  0  0  0  0  0  0  0  0
   50.5380   62.8194   74.6384 C   0  0  2  0  0  0  0  0  0  0  0  0
   49.5355   61.8263   74.0357 C   0  0  1  0  0  0  0  0  0  0  0  0
   48.2520   62.4009   73.9840 O   0  0  0  0  0  0  0  0  0  0  0  0
   50.0583   61.6183   72.6279 C   0  0  0  0  0  0  0  0  0  0  0  0
   50.6077   62.9138   72.2134 N   0  0  2  0  0  0  0  0  0  0  0  0
   54.7011   58.5036   71.1995 N   0  0  0  0  0  0  0  0  0  0  0  0
   53.3481   58.5559   70.9628 C   0  0  0  0  0  0  0  0  0  0  0  0
   52.6728   59.7458   71.0007 N   0  0  0  0  0  0  0  0  0  0  0  0
   53.3598   60.8768   71.2948 C   0  0  0  0  0  0  0  0  0  0  0  0
   54.7081   60.8566   71.5279 C   0  0  0  0  0  0  0  0  0  0  0  0
   55.4095   59.6416   71.4823 C   0  0  0  0  0  0  0  0  0  0  0  0
   56.6535   59.5895   71.6921 O   0  0  0  0  0  0  0  0  0  0  0  0
   55.1619   62.1023   71.7607 N   0  0  0  0  0  0  0  0  0  0  0  0
   54.0839   62.9227   71.6721 C   0  0  0  0  0  0  0  0  0  0  0  0
   52.9233   62.1974   71.3915 C   0  0  0  0  0  0  0  0  0  0  0  0
   51.5666   62.8086   71.0841 C   0  0  0  0  0  0  0  0  0  0  0  0
   50.7159   64.6403   73.4592 H   0  0  0  0  0  0  0  0  0  0  0  0
   52.2030   63.6671   73.4710 H   0  0  0  0  0  0  0  0  0  0  0  0
   51.2204   61.5656   76.2824 H   0  0  0  0  0  0  0  0  0  0  0  0
   52.0930   61.2788   74.7269 H   0  0  0  0  0  0  0  0  0  0  0  0
   53.4438   62.7640   75.2138 H   0  0  0  0  0  0  0  0  0  0  0  0
   50.0299   63.5084   75.3502 H   0  0  0  0  0  0  0  0  0  0  0  0
   49.5003   60.8638   74.5994 H   0  0  0  0  0  0  0  0  0  0  0  0
   48.3818   63.3795   73.8772 H   0  0  0  0  0  0  0  0  0  0  0  0
   50.8418   60.8379   72.6577 H   0  0  0  0  0  0  0  0  0  0  0  0
   49.2527   61.2803   71.9372 H   0  0  0  0  0  0  0  0  0  0  0  0
   49.7944   63.4723   71.8546 H   0  0  0  0  0  0  0  0  0  0  0  0
   55.1912   57.5817   71.1591 H   0  0  0  0  0  0  0  0  0  0  0  0
   52.8074   57.6466   70.7355 H   0  0  0  0  0  0  0  0  0  0  0  0
   56.1477   62.3873   71.9538 H   0  0  0  0  0  0  0  0  0  0  0  0
   54.1389   63.9979   71.7833 H   0  0  0  0  0  0  0  0  0  0  0  0
   51.1063   62.2329   70.2503 H   0  0  0  0  0  0  0  0  0  0  0  0
   51.7421   63.8289   70.6748 H   0  0  0  0  0  0  0  0  0  0  0  0
  3  2  1  0
  4  2  1  0
  4  1  1  0
  5  4  1  0
  5  6  1  0
  7  5  1  0
  8  7  1  0
  8  1  1  0
 10  9  1  0
 11 10  2  0
 12 11  1  0
 13 12  2  0
 14  9  1  0
 14 13  1  0
 15 14  2  0
 16 13  1  0
 17 16  1  0
 18 17  2  0
 18 12  1  0
 19 18  1  0
 19  8  1  0
  1 20  1  0
  1 21  1  0
  2 22  1  0
  2 23  1  0
  3 24  1  0
  4 25  1  1
  5 26  1  1
  6 27  1  0
  7 28  1  0
  7 29  1  0
  8 30  1  6
  9 31  1  0
 10 32  1  0
 16 33  1  0
 17 34  1  0
 19 35  1  0
 19 36  1  0
M  CHG  1   8   1
M  END
