
     RDKit          3D

 36 38  0  0  0  0  0  0  0  0999 V2000
   52.6639   65.6963  166.4648 C   0  0  0  0  0  0  0  0  0  0  0  0
   53.4598   64.8022  168.6973 C   0  0  0  0  0  0  0  0  0  0  0  0
   54.6163   65.5924  168.7078 O   0  0  0  0  0  0  0  0  0  0  0  0
   52.3286   65.5335  167.9557 C   0  0  2  0  0  0  0  0  0  0  0  0
   51.0541   64.6976  167.9600 C   0  0  1  0  0  0  0  0  0  0  0  0
   49.9484   65.5451  167.7751 O   0  0  0  0  0  0  0  0  0  0  0  0
   51.2238   63.8393  166.7266 C   0  0  0  0  0  0  0  0  0  0  0  0
   51.8091   64.7414  165.7296 N   0  0  2  0  0  0  0  0  0  0  0  0
   56.0638   60.2355  165.4432 N   0  0  0  0  0  0  0  0  0  0  0  0
   54.6954   60.1123  165.4546 C   0  0  0  0  0  0  0  0  0  0  0  0
   53.8912   61.1988  165.2391 N   0  0  0  0  0  0  0  0  0  0  0  0
   54.4682   62.4093  165.0304 C   0  0  0  0  0  0  0  0  0  0  0  0
   55.8259   62.5606  165.0044 C   0  0  0  0  0  0  0  0  0  0  0  0
   56.6568   61.4488  165.2143 C   0  0  0  0  0  0  0  0  0  0  0  0
   57.9136   61.5531  165.1935 O   0  0  0  0  0  0  0  0  0  0  0  0
   56.1514   63.8431  164.7479 N   0  0  0  0  0  0  0  0  0  0  0  0
   54.9799   64.5143  164.6104 C   0  0  0  0  0  0  0  0  0  0  0  0
   53.8940   63.6561  164.7865 C   0  0  0  0  0  0  0  0  0  0  0  0
   52.4430   64.0384  164.5934 C   0  0  0  0  0  0  0  0  0  0  0  0
   52.4233   66.7373  166.1497 H   0  0  0  0  0  0  0  0  0  0  0  0
   53.7455   65.5584  166.2639 H   0  0  0  0  0  0  0  0  0  0  0  0
   53.1465   64.5727  169.7415 H   0  0  0  0  0  0  0  0  0  0  0  0
   53.7038   63.8391  168.2011 H   0  0  0  0  0  0  0  0  0  0  0  0
   54.6368   66.0791  167.8427 H   0  0  0  0  0  0  0  0  0  0  0  0
   52.1547   66.5225  168.4369 H   0  0  0  0  0  0  0  0  0  0  0  0
   50.9391   64.0877  168.8870 H   0  0  0  0  0  0  0  0  0  0  0  0
   49.3713   65.4371  168.5757 H   0  0  0  0  0  0  0  0  0  0  0  0
   51.8917   62.9934  166.9661 H   0  0  0  0  0  0  0  0  0  0  0  0
   50.2482   63.4307  166.3781 H   0  0  0  0  0  0  0  0  0  0  0  0
   51.0114   65.2882  165.3205 H   0  0  0  0  0  0  0  0  0  0  0  0
   56.6543   59.3889  165.6058 H   0  0  0  0  0  0  0  0  0  0  0  0
   54.2443   59.1444  165.6292 H   0  0  0  0  0  0  0  0  0  0  0  0
   57.1121   64.2425  164.6596 H   0  0  0  0  0  0  0  0  0  0  0  0
   54.9159   65.5689  164.3755 H   0  0  0  0  0  0  0  0  0  0  0  0
   51.8662   63.1182  164.3507 H   0  0  0  0  0  0  0  0  0  0  0  0
   52.3746   64.6850  163.6897 H   0  0  0  0  0  0  0  0  0  0  0  0
  3  2  1  0
  4  2  1  0
  4  1  1  0
  5  4  1  0
  5  6  1  0
  7  5  1  0
  8  7  1  0
  8  1  1  0
 10  9  1  0
 11 10  2  0
 12 11  1  0
 13 12  2  0
 14 13  1  0
 14  9  1  0
 15 14  2  0
 16 13  1  0
 17 16  1  0
 18 17  2  0
 18 12  1  0
 19 18  1  0
 19  8  1  0
  1 20  1  0
  1 21  1  0
  2 22  1  0
  2 23  1  0
  3 24  1  0
  4 25  1  1
  5 26  1  1
  6 27  1  0
  7 28  1  0
  7 29  1  0
  8 30  1  6
  9 31  1  0
 10 32  1  0
 16 33  1  0
 17 34  1  0
 19 35  1  0
 19 36  1  0
M  CHG  1   8   1
M  END
