
     RDKit          3D

 14 13  0  0  0  0  0  0  0  0999 V2000
   21.6815   -1.0589    6.2241 P   0  0  0  0  0  0  0  0  0  0  0  0
   21.2378   -1.2716    7.8288 O   0  0  0  0  0  0  0  0  0  0  0  0
   21.4506   -2.3539    5.4853 O   0  0  0  0  0  0  0  0  0  0  0  0
   23.3203   -0.6948    6.2580 O   0  0  0  0  0  0  0  0  0  0  0  0
   20.8315    0.2069    5.5231 O   0  0  0  0  0  0  0  0  0  0  0  0
   19.6506   -1.6178    9.4275 C   0  0  0  0  0  0  0  0  0  0  0  0
   20.5180   -1.4215   10.3266 O   0  0  0  0  0  0  0  0  0  0  0  0
   19.8678   -1.0926    8.0448 C   0  0  0  0  0  0  0  0  0  0  0  0
   18.5375   -2.3802    9.7310 O   0  0  0  0  0  0  0  0  0  0  0  0
   23.7658   -1.4913    5.8731 H   0  0  0  0  0  0  0  0  0  0  0  0
   21.5276    0.8379    5.2096 H   0  0  0  0  0  0  0  0  0  0  0  0
   19.5959   -0.0154    8.0158 H   0  0  0  0  0  0  0  0  0  0  0  0
   19.2642   -1.6809    7.3180 H   0  0  0  0  0  0  0  0  0  0  0  0
   17.6149   -2.1052    9.4150 H   0  0  0  0  0  0  0  0  0  0  0  0
  2  1  1  0
  3  1  2  0
  4  1  1  0
  5  1  1  0
  7  6  2  0
  8  6  1  0
  8  2  1  0
  9  6  1  0
  4 10  1  0
  5 11  1  0
  8 12  1  0
  8 13  1  0
  9 14  1  0
M  END
