
     RDKit          3D

 36 38  0  0  0  0  0  0  0  0999 V2000
   53.3783    3.8317   64.7298 C   0  0  0  0  0  0  0  0  0  0  0  0
   50.9082    3.6378   64.1432 C   0  0  0  0  0  0  0  0  0  0  0  0
   50.4237    2.6578   65.0263 O   0  0  0  0  0  0  0  0  0  0  0  0
   51.9997    4.5062   64.8088 C   0  0  2  0  0  0  0  0  0  0  0  0
   52.1865    5.8286   64.0566 C   0  0  1  0  0  0  0  0  0  0  0  0
   52.6766    6.8004   64.9485 O   0  0  0  0  0  0  0  0  0  0  0  0
   53.2572    5.4974   63.0286 C   0  0  0  0  0  0  0  0  0  0  0  0
   54.1598    4.5681   63.7158 N   0  0  2  0  0  0  0  0  0  0  0  0
   51.6404    1.6953   59.3727 N   0  0  0  0  0  0  0  0  0  0  0  0
   51.7372    3.0034   59.7737 C   0  0  0  0  0  0  0  0  0  0  0  0
   52.6522    3.3753   60.7182 N   0  0  0  0  0  0  0  0  0  0  0  0
   53.4468    2.4210   61.2654 C   0  0  0  0  0  0  0  0  0  0  0  0
   53.3769    1.1127   60.8811 C   0  0  0  0  0  0  0  0  0  0  0  0
   52.4486    0.7271   59.9023 C   0  0  0  0  0  0  0  0  0  0  0  0
   52.3508   -0.4704   59.5124 O   0  0  0  0  0  0  0  0  0  0  0  0
   54.2836    0.3744   61.5534 N   0  0  0  0  0  0  0  0  0  0  0  0
   54.9405    1.2365   62.3701 C   0  0  0  0  0  0  0  0  0  0  0  0
   54.4416    2.5323   62.2237 C   0  0  0  0  0  0  0  0  0  0  0  0
   55.0458    3.7749   62.8316 C   0  0  0  0  0  0  0  0  0  0  0  0
   53.2985    2.7500   64.4987 H   0  0  0  0  0  0  0  0  0  0  0  0
   53.8776    3.9006   65.7238 H   0  0  0  0  0  0  0  0  0  0  0  0
   51.3205    3.1213   63.2501 H   0  0  0  0  0  0  0  0  0  0  0  0
   50.0698    4.2843   63.7976 H   0  0  0  0  0  0  0  0  0  0  0  0
   49.4386    2.6329   64.9065 H   0  0  0  0  0  0  0  0  0  0  0  0
   51.7130    4.6916   65.8685 H   0  0  0  0  0  0  0  0  0  0  0  0
   51.2436    6.1789   63.5745 H   0  0  0  0  0  0  0  0  0  0  0  0
   53.3284    7.3493   64.4391 H   0  0  0  0  0  0  0  0  0  0  0  0
   53.7940    6.4107   62.6845 H   0  0  0  0  0  0  0  0  0  0  0  0
   52.7819    5.0149   62.1510 H   0  0  0  0  0  0  0  0  0  0  0  0
   54.8153    5.1861   64.2559 H   0  0  0  0  0  0  0  0  0  0  0  0
   50.9362    1.4399   58.6441 H   0  0  0  0  0  0  0  0  0  0  0  0
   51.0912    3.7518   59.3340 H   0  0  0  0  0  0  0  0  0  0  0  0
   54.4614   -0.6495   61.4534 H   0  0  0  0  0  0  0  0  0  0  0  0
   55.7617    0.9475   63.0132 H   0  0  0  0  0  0  0  0  0  0  0  0
   55.9454    3.4651   63.4104 H   0  0  0  0  0  0  0  0  0  0  0  0
   55.4276    4.4185   62.0080 H   0  0  0  0  0  0  0  0  0  0  0  0
  3  2  1  0
  4  2  1  0
  4  1  1  0
  5  4  1  0
  5  6  1  0
  7  5  1  0
  8  7  1  0
  8  1  1  0
 10  9  1  0
 11 10  2  0
 12 11  1  0
 13 12  2  0
 14 13  1  0
 14  9  1  0
 15 14  2  0
 16 13  1  0
 17 16  1  0
 18 17  2  0
 18 12  1  0
 19 18  1  0
 19  8  1  0
  1 20  1  0
  1 21  1  0
  2 22  1  0
  2 23  1  0
  3 24  1  0
  4 25  1  1
  5 26  1  6
  6 27  1  0
  7 28  1  0
  7 29  1  0
  8 30  1  1
  9 31  1  0
 10 32  1  0
 16 33  1  0
 17 34  1  0
 19 35  1  0
 19 36  1  0
M  CHG  1   8   1
M  END
