
     RDKit          3D

 36 38  0  0  0  0  0  0  0  0999 V2000
   65.2125    1.7316   20.5186 C   0  0  0  0  0  0  0  0  0  0  0  0
   66.6057    0.8520   22.4502 C   0  0  0  0  0  0  0  0  0  0  0  0
   66.8873   -0.3080   21.7137 O   0  0  0  0  0  0  0  0  0  0  0  0
   66.3628    2.0314   21.4932 C   0  0  2  0  0  0  0  0  0  0  0  0
   65.9050    3.2806   22.2461 C   0  0  1  0  0  0  0  0  0  0  0  0
   66.2585    4.4204   21.4996 O   0  0  0  0  0  0  0  0  0  0  0  0
   64.3947    3.1390   22.2531 C   0  0  0  0  0  0  0  0  0  0  0  0
   64.0725    2.5700   20.9422 N   0  0  2  0  0  0  0  0  0  0  0  0
   60.8508   -1.1837   24.6453 N   0  0  0  0  0  0  0  0  0  0  0  0
   60.8869    0.1874   24.6346 C   0  0  0  0  0  0  0  0  0  0  0  0
   61.4477    0.8653   23.5875 N   0  0  0  0  0  0  0  0  0  0  0  0
   61.9853    0.1529   22.5682 C   0  0  0  0  0  0  0  0  0  0  0  0
   61.9616   -1.2101   22.5519 C   0  0  0  0  0  0  0  0  0  0  0  0
   61.3696   -1.9104   23.6111 C   0  0  0  0  0  0  0  0  0  0  0  0
   61.3144   -3.1714   23.6230 O   0  0  0  0  0  0  0  0  0  0  0  0
   62.5249   -1.6778   21.4224 N   0  0  0  0  0  0  0  0  0  0  0  0
   62.8989   -0.5872   20.7088 C   0  0  0  0  0  0  0  0  0  0  0  0
   62.5822    0.5836   21.3954 C   0  0  0  0  0  0  0  0  0  0  0  0
   62.7200    1.9805   20.8485 C   0  0  0  0  0  0  0  0  0  0  0  0
   64.9618    0.6532   20.4862 H   0  0  0  0  0  0  0  0  0  0  0  0
   65.5258    2.0071   19.4854 H   0  0  0  0  0  0  0  0  0  0  0  0
   65.7029    0.6605   23.0687 H   0  0  0  0  0  0  0  0  0  0  0  0
   67.4483    1.0852   23.1404 H   0  0  0  0  0  0  0  0  0  0  0  0
   66.3192   -1.0293   22.0914 H   0  0  0  0  0  0  0  0  0  0  0  0
   67.3043    2.2354   20.9346 H   0  0  0  0  0  0  0  0  0  0  0  0
   66.3254    3.3356   23.2778 H   0  0  0  0  0  0  0  0  0  0  0  0
   67.2491    4.4197   21.4339 H   0  0  0  0  0  0  0  0  0  0  0  0
   63.8914    4.1207   22.4072 H   0  0  0  0  0  0  0  0  0  0  0  0
   64.0939    2.4534   23.0725 H   0  0  0  0  0  0  0  0  0  0  0  0
   64.0534    3.3893   20.2852 H   0  0  0  0  0  0  0  0  0  0  0  0
   60.4092   -1.6746   25.4552 H   0  0  0  0  0  0  0  0  0  0  0  0
   60.4606    0.7431   25.4594 H   0  0  0  0  0  0  0  0  0  0  0  0
   62.6288   -2.6767   21.1364 H   0  0  0  0  0  0  0  0  0  0  0  0
   63.3527   -0.6376   19.7275 H   0  0  0  0  0  0  0  0  0  0  0  0
   62.4098    1.9589   19.7792 H   0  0  0  0  0  0  0  0  0  0  0  0
   61.9831    2.6376   21.3623 H   0  0  0  0  0  0  0  0  0  0  0  0
  3  2  1  0
  4  1  1  0
  4  2  1  0
  5  4  1  0
  5  6  1  0
  7  5  1  0
  8  7  1  0
  8  1  1  0
 10  9  1  0
 11 10  2  0
 12 11  1  0
 13 12  2  0
 14 13  1  0
 14  9  1  0
 15 14  2  0
 16 13  1  0
 17 16  1  0
 18 17  2  0
 18 12  1  0
 19 18  1  0
 19  8  1  0
  1 20  1  0
  1 21  1  0
  2 22  1  0
  2 23  1  0
  3 24  1  0
  4 25  1  6
  5 26  1  1
  6 27  1  0
  7 28  1  0
  7 29  1  0
  8 30  1  6
  9 31  1  0
 10 32  1  0
 16 33  1  0
 17 34  1  0
 19 35  1  0
 19 36  1  0
M  CHG  1   8   1
M  END
