
     RDKit          3D

 56 55  0  0  0  0  0  0  0  0999 V2000
   47.8413   46.5244   15.4390 C   0  0  1  0  0  0  0  0  0  0  0  0
   47.7402   40.3510   16.4277 C   0  0  1  0  0  0  0  0  0  0  0  0
   49.8770   38.7653   19.2493 C   0  0  0  0  0  0  0  0  0  0  0  0
   47.0942   45.2422   15.8328 C   0  0  0  0  0  0  0  0  0  0  0  0
   47.7253   40.0969   14.9213 C   0  0  0  0  0  0  0  0  0  0  0  0
   48.0061   44.0161   15.8135 C   0  0  0  0  0  0  0  0  0  0  0  0
   46.6165   41.2794   14.0680 S   0  0  0  0  0  0  0  0  0  0  0  0
   47.3880   42.8386   16.4794 C   0  0  0  0  0  0  0  0  0  0  0  0
   46.1700   42.8310   16.8071 O   0  0  0  0  0  0  0  0  0  0  0  0
   48.4459   46.3939   14.0654 C   0  0  0  0  0  0  0  0  0  0  0  0
   45.1084   40.2466   14.0305 C   0  0  0  0  0  0  0  0  0  0  0  0
   46.9259   47.6722   15.5040 N   0  0  0  0  0  0  0  0  0  0  0  0
   48.6377   39.3797   17.1257 C   0  0  0  0  0  0  0  0  0  0  0  0
   44.8335   39.7147   12.6219 C   0  0  0  0  0  0  0  0  0  0  0  0
   48.2046   41.7000   16.7023 N   0  0  0  0  0  0  0  0  0  0  0  0
   49.0082   38.3194   16.5486 O   0  0  0  0  0  0  0  0  0  0  0  0
   51.3223   39.1309   19.1414 C   0  0  0  0  0  0  0  0  0  0  0  0
   45.5180   38.3692   12.3679 C   0  0  0  0  0  0  0  0  0  0  0  0
   49.0471   39.6653   18.4616 N   0  0  0  0  0  0  0  0  0  0  0  0
   44.8516   37.2633   13.1948 C   0  0  0  0  0  0  0  0  0  0  0  0
   45.6888   35.9805   13.2335 C   0  0  0  0  0  0  0  0  0  0  0  0
   44.9579   34.8298   13.9230 C   0  0  0  0  0  0  0  0  0  0  0  0
   49.5240   45.7613   13.9026 O   0  0  0  0  0  0  0  0  0  0  0  0
   47.7988   46.9398   12.9724 O   0  0  0  0  0  0  0  0  0  0  0  0
   51.6477   40.2248   18.6114 O   0  0  0  0  0  0  0  0  0  0  0  0
   52.3014   38.2949   19.6510 O   0  0  0  0  0  0  0  0  0  0  0  0
   48.6672   46.6938   16.1672 H   0  0  0  0  0  0  0  0  0  0  0  0
   46.7034   40.2095   16.8021 H   0  0  0  0  0  0  0  0  0  0  0  0
   49.5670   38.8299   20.3145 H   0  0  0  0  0  0  0  0  0  0  0  0
   49.7348   37.7130   18.9225 H   0  0  0  0  0  0  0  0  0  0  0  0
   46.6904   45.3829   16.8604 H   0  0  0  0  0  0  0  0  0  0  0  0
   46.2366   45.0746   15.1435 H   0  0  0  0  0  0  0  0  0  0  0  0
   47.4298   39.0476   14.7078 H   0  0  0  0  0  0  0  0  0  0  0  0
   48.7486   40.2391   14.5118 H   0  0  0  0  0  0  0  0  0  0  0  0
   48.9604   44.2504   16.3343 H   0  0  0  0  0  0  0  0  0  0  0  0
   48.2317   43.7288   14.7648 H   0  0  0  0  0  0  0  0  0  0  0  0
   44.2593   40.8976   14.3274 H   0  0  0  0  0  0  0  0  0  0  0  0
   45.1491   39.4162   14.7673 H   0  0  0  0  0  0  0  0  0  0  0  0
   46.1030   47.5313   14.8728 H   0  0  0  0  0  0  0  0  0  0  0  0
   46.5840   47.7967   16.4848 H   0  0  0  0  0  0  0  0  0  0  0  0
   47.4306   48.5450   15.2243 H   0  0  0  0  0  0  0  0  0  0  0  0
   43.7337   39.5917   12.5111 H   0  0  0  0  0  0  0  0  0  0  0  0
   45.1709   40.4603   11.8689 H   0  0  0  0  0  0  0  0  0  0  0  0
   49.1949   41.8424   17.0087 H   0  0  0  0  0  0  0  0  0  0  0  0
   45.4554   38.1117   11.2883 H   0  0  0  0  0  0  0  0  0  0  0  0
   46.5871   38.4596   12.6534 H   0  0  0  0  0  0  0  0  0  0  0  0
   48.7728   40.5737   18.9001 H   0  0  0  0  0  0  0  0  0  0  0  0
   44.6700   37.6186   14.2333 H   0  0  0  0  0  0  0  0  0  0  0  0
   43.8644   37.0221   12.7430 H   0  0  0  0  0  0  0  0  0  0  0  0
   46.6571   36.1692   13.7462 H   0  0  0  0  0  0  0  0  0  0  0  0
   45.9134   35.6767   12.1880 H   0  0  0  0  0  0  0  0  0  0  0  0
   45.5296   33.8900   13.7717 H   0  0  0  0  0  0  0  0  0  0  0  0
   44.8802   35.0062   15.0155 H   0  0  0  0  0  0  0  0  0  0  0  0
   43.9426   34.6952   13.4929 H   0  0  0  0  0  0  0  0  0  0  0  0
   46.7912   47.0437   12.9626 H   0  0  0  0  0  0  0  0  0  0  0  0
   52.5181   37.4129   19.2022 H   0  0  0  0  0  0  0  0  0  0  0  0
  4  1  1  0
  2  5  1  0
  6  4  1  0
  7  5  1  0
  8  6  1  0
  9  8  2  0
 10  1  1  0
 11  7  1  0
  1 12  1  0
 13  2  1  0
 14 11  1  0
 15  2  1  0
 15  8  1  0
 16 13  2  0
 17  3  1  0
 18 14  1  0
 19 13  1  0
 19  3  1  0
 20 18  1  0
 21 20  1  0
 22 21  1  0
 23 10  2  0
 24 10  1  0
 25 17  2  0
 26 17  1  0
  1 27  1  1
  2 28  1  1
  3 29  1  0
  3 30  1  0
  4 31  1  0
  4 32  1  0
  5 33  1  0
  5 34  1  0
  6 35  1  0
  6 36  1  0
 11 37  1  0
 11 38  1  0
 12 39  1  0
 12 40  1  0
 12 41  1  0
 14 42  1  0
 14 43  1  0
 15 44  1  0
 18 45  1  0
 18 46  1  0
 19 47  1  0
 20 48  1  0
 20 49  1  0
 21 50  1  0
 21 51  1  0
 22 52  1  0
 22 53  1  0
 22 54  1  0
 24 55  1  0
 26 56  1  0
M  CHG  1  12   1
M  END
