
     RDKit          3D

 49 51  0  0  0  0  0  0  0  0999 V2000
   13.2045    7.5858   -3.8549 P   0  0  2  0  0  0  0  0  0  0  0  0
   10.9727    7.5953   -2.1378 P   0  0  1  0  0  0  0  0  0  0  0  0
    8.1718    7.2049   -1.4178 P   0  0  0  0  0  0  0  0  0  0  0  0
   12.2950    7.7720   -6.2269 C   0  0  0  0  0  0  0  0  0  0  0  0
   13.4168    8.1027   -5.4401 O   0  0  0  0  0  0  0  0  0  0  0  0
   12.6948    7.9811   -7.6869 C   0  0  1  0  0  0  0  0  0  0  0  0
   13.5259    9.1288   -7.7786 O   0  0  0  0  0  0  0  0  0  0  0  0
   13.4544    6.7638   -8.2307 C   0  0  1  0  0  0  0  0  0  0  0  0
   13.0859    6.5460   -9.5676 O   0  0  0  0  0  0  0  0  0  0  0  0
   14.8943    7.2202   -8.1323 C   0  0  1  0  0  0  0  0  0  0  0  0
   15.7435    6.6386   -9.0889 O   0  0  0  0  0  0  0  0  0  0  0  0
   14.7801    8.7325   -8.2866 C   0  0  2  0  0  0  0  0  0  0  0  0
   18.9802   11.6771   -8.7300 N   0  0  0  0  0  0  0  0  0  0  0  0
   13.8106    8.6195   -2.9391 O   0  0  0  0  0  0  0  0  0  0  0  0
   10.5727    9.0269   -1.8835 O   0  0  0  0  0  0  0  0  0  0  0  0
    7.7553    8.5418   -1.9787 O   0  0  0  0  0  0  0  0  0  0  0  0
   18.1598   11.1906   -9.7221 C   0  0  0  0  0  0  0  0  0  0  0  0
   18.4463   11.4774  -11.0845 N   0  0  0  0  0  0  0  0  0  0  0  0
   13.9557    6.0959   -3.6616 O   0  0  0  0  0  0  0  0  0  0  0  0
   12.0704    7.0453   -0.9950 O   0  0  0  0  0  0  0  0  0  0  0  0
    6.9987    6.0599   -1.7554 O   0  0  0  0  0  0  0  0  0  0  0  0
   17.0770   10.4204   -9.4117 N   0  0  0  0  0  0  0  0  0  0  0  0
    9.5663    6.5902   -2.2326 N   0  0  0  0  0  0  0  0  0  0  0  0
   11.5345    7.5770   -3.7115 O   0  0  0  0  0  0  0  0  0  0  0  0
    8.4265    7.2809    0.2398 O   0  0  0  0  0  0  0  0  0  0  0  0
   16.8498   10.1561   -8.1024 C   0  0  0  0  0  0  0  0  0  0  0  0
   17.6365   10.6313   -7.1044 C   0  0  0  0  0  0  0  0  0  0  0  0
   18.7456   11.4127   -7.4097 C   0  0  0  0  0  0  0  0  0  0  0  0
   19.5156   11.8640   -6.5170 O   0  0  0  0  0  0  0  0  0  0  0  0
   17.1690   10.2326   -5.9047 N   0  0  0  0  0  0  0  0  0  0  0  0
   16.0728    9.5004   -6.2334 C   0  0  0  0  0  0  0  0  0  0  0  0
   15.8580    9.4260   -7.5756 N   0  0  0  0  0  0  0  0  0  0  0  0
   11.4426    8.4458   -5.9891 H   0  0  0  0  0  0  0  0  0  0  0  0
   11.9812    6.7115   -6.0914 H   0  0  0  0  0  0  0  0  0  0  0  0
   11.7684    8.1599   -8.2765 H   0  0  0  0  0  0  0  0  0  0  0  0
   13.2964    5.8347   -7.6322 H   0  0  0  0  0  0  0  0  0  0  0  0
   12.5963    7.3582   -9.8617 H   0  0  0  0  0  0  0  0  0  0  0  0
   15.2810    6.9442   -7.1297 H   0  0  0  0  0  0  0  0  0  0  0  0
   16.6845    6.7525   -8.7953 H   0  0  0  0  0  0  0  0  0  0  0  0
   14.8061    9.0091   -9.3645 H   0  0  0  0  0  0  0  0  0  0  0  0
   19.8070   12.2614   -8.9901 H   0  0  0  0  0  0  0  0  0  0  0  0
   19.4212   11.3892  -11.4479 H   0  0  0  0  0  0  0  0  0  0  0  0
   17.6896   11.7784  -11.7379 H   0  0  0  0  0  0  0  0  0  0  0  0
   14.7557    6.2803   -3.1082 H   0  0  0  0  0  0  0  0  0  0  0  0
   12.7449    7.7667   -0.9217 H   0  0  0  0  0  0  0  0  0  0  0  0
    7.3357    5.2231   -1.3464 H   0  0  0  0  0  0  0  0  0  0  0  0
    9.3198    6.4917   -3.2432 H   0  0  0  0  0  0  0  0  0  0  0  0
    8.3274    8.2383    0.4732 H   0  0  0  0  0  0  0  0  0  0  0  0
   15.4459    9.0318   -5.4903 H   0  0  0  0  0  0  0  0  0  0  0  0
  5  4  1  0
  1  5  1  6
  6  4  1  0
  7  6  1  0
  8  6  1  0
  8  9  1  0
 10  8  1  0
 10 11  1  0
 12 10  1  0
 12  7  1  0
 14  1  2  0
 15  2  2  0
 16  3  2  0
 17 13  1  0
 18 17  1  0
 19  1  1  0
  2 20  1  1
 21  3  1  0
 22 17  2  0
 23  3  1  0
 23  2  1  0
 24  2  1  0
 24  1  1  0
 25  3  1  0
 26 22  1  0
 27 26  2  0
 28 27  1  0
 28 13  1  0
 29 28  2  0
 30 27  1  0
 31 30  2  0
 32 26  1  0
 12 32  1  0
 32 31  1  0
  4 33  1  0
  4 34  1  0
  6 35  1  6
  8 36  1  1
  9 37  1  0
 10 38  1  1
 11 39  1  0
 12 40  1  6
 13 41  1  0
 18 42  1  0
 18 43  1  0
 19 44  1  0
 20 45  1  0
 21 46  1  0
 23 47  1  0
 25 48  1  0
 31 49  1  0
M  END
