
     RDKit          3D

 38 39  0  0  0  0  0  0  0  0999 V2000
  -23.5606    6.7900  -14.0660 Cl  0  0  0  0  0  0  0  0  0  0  0  0
  -14.0963   11.1536   -9.0134 C   0  0  0  0  0  0  0  0  0  0  0  0
  -13.2989   12.2125   -8.5010 N   0  0  0  0  0  0  0  0  0  0  0  0
  -12.1841   11.9368   -7.7587 O   0  0  0  0  0  0  0  0  0  0  0  0
  -13.6080   13.3988   -8.7281 O   0  0  0  0  0  0  0  0  0  0  0  0
  -15.1924   11.4546   -9.8181 C   0  0  0  0  0  0  0  0  0  0  0  0
  -15.9823   10.4452  -10.3443 C   0  0  0  0  0  0  0  0  0  0  0  0
  -17.1402   10.9000  -11.1862 C   0  0  0  0  0  0  0  0  0  0  0  0
  -18.1431    9.8730  -11.3126 N   0  0  0  0  0  0  0  0  0  0  0  0
  -19.5237   10.1377  -11.1315 C   0  0  0  0  0  0  0  0  0  0  0  0
  -20.5206    9.3528  -11.8709 C   0  0  0  0  0  0  0  0  0  0  0  0
  -21.6682    8.9088  -11.1991 C   0  0  0  0  0  0  0  0  0  0  0  0
  -22.6068    8.1187  -11.8624 C   0  0  0  0  0  0  0  0  0  0  0  0
  -22.4063    7.7746  -13.2008 C   0  0  0  0  0  0  0  0  0  0  0  0
  -21.2727    8.2068  -13.8746 C   0  0  0  0  0  0  0  0  0  0  0  0
  -20.3149    8.9916  -13.2194 C   0  0  0  0  0  0  0  0  0  0  0  0
  -19.1697    9.4326  -13.8906 O   0  0  0  0  0  0  0  0  0  0  0  0
  -18.3354    8.5881  -14.6825 C   0  0  0  0  0  0  0  0  0  0  0  0
  -18.5723    7.1482  -14.3544 C   0  0  0  0  0  0  0  0  0  0  0  0
  -18.0070    6.2492  -15.0266 O   0  0  0  0  0  0  0  0  0  0  0  0
  -19.3370    6.7922  -13.2665 O   0  0  0  0  0  0  0  0  0  0  0  0
  -19.8910   10.9610  -10.2541 O   0  0  0  0  0  0  0  0  0  0  0  0
  -15.6889    9.0998  -10.0287 C   0  0  0  0  0  0  0  0  0  0  0  0
  -14.5866    8.7921   -9.2219 C   0  0  0  0  0  0  0  0  0  0  0  0
  -13.7875    9.8178   -8.7180 C   0  0  0  0  0  0  0  0  0  0  0  0
  -15.4327   12.4870  -10.0460 H   0  0  0  0  0  0  0  0  0  0  0  0
  -16.7700   11.1460  -12.2055 H   0  0  0  0  0  0  0  0  0  0  0  0
  -17.5722   11.8328  -10.7622 H   0  0  0  0  0  0  0  0  0  0  0  0
  -17.8118    8.9025  -11.2739 H   0  0  0  0  0  0  0  0  0  0  0  0
  -21.8330    9.1600  -10.1582 H   0  0  0  0  0  0  0  0  0  0  0  0
  -23.4892    7.7752  -11.3379 H   0  0  0  0  0  0  0  0  0  0  0  0
  -21.1646    7.9294  -14.9114 H   0  0  0  0  0  0  0  0  0  0  0  0
  -17.2809    8.8173  -14.4240 H   0  0  0  0  0  0  0  0  0  0  0  0
  -18.4391    8.7850  -15.7676 H   0  0  0  0  0  0  0  0  0  0  0  0
  -20.2861    6.4570  -13.3819 H   0  0  0  0  0  0  0  0  0  0  0  0
  -16.3022    8.2899  -10.4003 H   0  0  0  0  0  0  0  0  0  0  0  0
  -14.3576    7.7606   -8.9871 H   0  0  0  0  0  0  0  0  0  0  0  0
  -12.9391    9.5653   -8.0953 H   0  0  0  0  0  0  0  0  0  0  0  0
  3  2  1  0
  4  3  1  0
  5  3  2  0
  6  2  2  0
  7  6  1  0
  8  7  1  0
  9  8  1  0
 10  9  1  0
 11 10  1  0
 12 11  2  0
 13 12  1  0
 14  1  1  0
 14 13  2  0
 15 14  1  0
 16 15  2  0
 16 11  1  0
 17 16  1  0
 18 17  1  0
 19 18  1  0
 20 19  2  0
 21 19  1  0
 22 10  2  0
 23  7  2  0
 24 23  1  0
 25 24  2  0
 25  2  1  0
  6 26  1  0
  8 27  1  0
  8 28  1  0
  9 29  1  0
 12 30  1  0
 13 31  1  0
 15 32  1  0
 18 33  1  0
 18 34  1  0
 21 35  1  0
 23 36  1  0
 24 37  1  0
 25 38  1  0
M  CHG  2   3   1   4  -1
M  END
