
     RDKit          3D

 26 27  0  0  0  0  0  0  0  0999 V2000
   81.6770   12.6598   27.7387 C   0  0  0  0  0  0  0  0  0  0  0  0
   80.4082   16.9793   26.8499 C   0  0  0  0  0  0  0  0  0  0  0  0
   81.1995   15.8805   27.1945 C   0  0  0  0  0  0  0  0  0  0  0  0
   80.9259   18.0421   28.9620 C   0  0  0  0  0  0  0  0  0  0  0  0
   82.9134   13.5504   27.8721 C   0  0  0  0  0  0  0  0  0  0  0  0
   83.5123   14.6581   30.0536 C   0  0  0  0  0  0  0  0  0  0  0  0
   80.2681   18.0587   27.7316 C   0  0  0  0  0  0  0  0  0  0  0  0
   81.8721   15.8301   28.4403 C   0  0  0  0  0  0  0  0  0  0  0  0
   81.7217   16.9409   29.3178 C   0  0  0  0  0  0  0  0  0  0  0  0
   82.8130   15.2569   31.1936 N   0  0  0  0  0  0  0  0  0  0  0  0
   82.6909   14.6680   28.8176 N   0  0  0  0  0  0  0  0  0  0  0  0
   81.6885   17.4921   31.9729 O   0  0  0  0  0  0  0  0  0  0  0  0
   83.8639   17.6462   30.7541 O   0  0  0  0  0  0  0  0  0  0  0  0
   82.5434   16.9189   30.8649 S   0  0  0  0  0  0  0  0  0  0  0  0
   79.4894   19.1190   27.3929 F   0  0  0  0  0  0  0  0  0  0  0  0
   81.8186   11.9477   26.8988 H   0  0  0  0  0  0  0  0  0  0  0  0
   81.5308   12.0824   28.6760 H   0  0  0  0  0  0  0  0  0  0  0  0
   80.7649   13.2602   27.5482 H   0  0  0  0  0  0  0  0  0  0  0  0
   79.8986   16.9961   25.8950 H   0  0  0  0  0  0  0  0  0  0  0  0
   81.2694   15.0823   26.4725 H   0  0  0  0  0  0  0  0  0  0  0  0
   80.8174   18.8804   29.6387 H   0  0  0  0  0  0  0  0  0  0  0  0
   83.7569   12.9094   28.2106 H   0  0  0  0  0  0  0  0  0  0  0  0
   83.2281   13.9364   26.8801 H   0  0  0  0  0  0  0  0  0  0  0  0
   83.7707   13.6119   30.3295 H   0  0  0  0  0  0  0  0  0  0  0  0
   84.4711   15.1892   29.8605 H   0  0  0  0  0  0  0  0  0  0  0  0
   83.4495   15.2087   32.0222 H   0  0  0  0  0  0  0  0  0  0  0  0
  3  2  2  0
  5  1  1  0
  7  2  1  0
  7  4  2  0
  8  3  1  0
  9  4  1  0
  9  8  2  0
 10  6  1  0
 11  5  1  0
 11  8  1  0
 11  6  1  0
 14 13  2  0
 14 10  1  0
 14  9  1  0
 14 12  2  0
 15  7  1  0
  1 16  1  0
  1 17  1  0
  1 18  1  0
  2 19  1  0
  3 20  1  0
  4 21  1  0
  5 22  1  0
  5 23  1  0
  6 24  1  0
  6 25  1  0
 10 26  1  0
M  END
