
     RDKit          3D

 32 33  0  0  0  0  0  0  0  0999 V2000
   22.4381   12.1414   71.7679 C   0  0  0  0  0  0  0  0  0  0  0  0
   23.2790   13.0993   72.3352 C   0  0  0  0  0  0  0  0  0  0  0  0
   22.3258   13.4526   69.7476 C   0  0  0  0  0  0  0  0  0  0  0  0
   25.8344   16.9319   75.3217 C   0  0  0  0  0  0  0  0  0  0  0  0
   26.3065   15.6506   76.0036 C   0  0  0  0  0  0  0  0  0  0  0  0
   25.5802   16.6657   73.8447 C   0  0  0  0  0  0  0  0  0  0  0  0
   25.2007   14.2447   74.3734 C   0  0  0  0  0  0  0  0  0  0  0  0
   23.5004   15.6271   69.4725 C   0  0  0  0  0  0  0  0  0  0  0  0
   21.9634   12.3197   70.4717 C   0  0  0  0  0  0  0  0  0  0  0  0
   23.6766   14.2377   71.6040 C   0  0  0  0  0  0  0  0  0  0  0  0
   23.1804   14.4238   70.2920 C   0  0  0  0  0  0  0  0  0  0  0  0
   24.6332   15.4748   73.6446 C   0  0  2  0  0  0  0  0  0  0  0  0
   25.3294   14.5684   75.8034 N   0  0  0  0  0  0  0  0  0  0  0  0
   24.4810   15.2549   72.2085 N   0  0  0  0  0  0  0  0  0  0  0  0
   22.7119   15.9947   68.5628 O   0  0  0  0  0  0  0  0  0  0  0  0
   24.6614   16.3547   69.6799 O   0  0  0  0  0  0  0  0  0  0  0  0
   20.8502   11.0124   69.6432 Br  0  0  0  0  0  0  0  0  0  0  0  0
   22.1526   11.2665   72.3379 H   0  0  0  0  0  0  0  0  0  0  0  0
   23.6003   12.9481   73.3556 H   0  0  0  0  0  0  0  0  0  0  0  0
   21.9427   13.5662   68.7406 H   0  0  0  0  0  0  0  0  0  0  0  0
   26.6078   17.7223   75.4325 H   0  0  0  0  0  0  0  0  0  0  0  0
   24.8979   17.2872   75.8053 H   0  0  0  0  0  0  0  0  0  0  0  0
   26.4139   15.8458   77.0925 H   0  0  0  0  0  0  0  0  0  0  0  0
   27.3067   15.3531   75.6134 H   0  0  0  0  0  0  0  0  0  0  0  0
   26.5509   16.4692   73.3356 H   0  0  0  0  0  0  0  0  0  0  0  0
   25.1363   17.5803   73.3936 H   0  0  0  0  0  0  0  0  0  0  0  0
   26.1859   13.9534   73.9423 H   0  0  0  0  0  0  0  0  0  0  0  0
   24.5145   13.3802   74.2621 H   0  0  0  0  0  0  0  0  0  0  0  0
   23.6444   15.7402   74.0801 H   0  0  0  0  0  0  0  0  0  0  0  0
   25.6967   13.7169   76.2889 H   0  0  0  0  0  0  0  0  0  0  0  0
   24.6770   16.0862   71.6084 H   0  0  0  0  0  0  0  0  0  0  0  0
   24.8037   17.2508   69.2292 H   0  0  0  0  0  0  0  0  0  0  0  0
  2  1  2  0
  5  4  1  0
  6  4  1  0
  9  3  2  0
  9  1  1  0
 10  2  1  0
 11  3  1  0
 11 10  2  0
 11  8  1  0
 12  7  1  0
 12  6  1  0
 13  7  1  0
 13  5  1  0
 12 14  1  0
 14 10  1  0
 15  8  2  0
 16  8  1  0
 17  9  1  0
  1 18  1  0
  2 19  1  0
  3 20  1  0
  4 21  1  0
  4 22  1  0
  5 23  1  0
  5 24  1  0
  6 25  1  0
  6 26  1  0
  7 27  1  0
  7 28  1  0
 12 29  1  1
 13 30  1  0
 14 31  1  0
 16 32  1  0
M  END
