
     RDKit          3D

 32 33  0  0  0  0  0  0  0  0999 V2000
   46.1923    1.9438   94.5095 C   0  0  0  0  0  0  0  0  0  0  0  0
   44.9254    1.3694   94.4515 C   0  0  0  0  0  0  0  0  0  0  0  0
   47.1996   -0.1923   94.0329 C   0  0  0  0  0  0  0  0  0  0  0  0
   39.8058   -0.3798   93.0589 C   0  0  0  0  0  0  0  0  0  0  0  0
   40.0767   -0.3787   91.5556 C   0  0  0  0  0  0  0  0  0  0  0  0
   41.0429   -0.8370   93.8260 C   0  0  0  0  0  0  0  0  0  0  0  0
   42.4562   -0.0721   91.9164 C   0  0  0  0  0  0  0  0  0  0  0  0
   45.8869   -2.2409   93.6297 C   0  0  0  0  0  0  0  0  0  0  0  0
   47.3252    1.1648   94.2986 C   0  0  0  0  0  0  0  0  0  0  0  0
   44.7685    0.0049   94.1524 C   0  0  0  0  0  0  0  0  0  0  0  0
   45.9340   -0.7946   93.9545 C   0  0  0  0  0  0  0  0  0  0  0  0
   42.2866   -0.0174   93.4440 C   0  0  2  0  0  0  0  0  0  0  0  0
   41.2519    0.4452   91.2496 N   0  0  0  0  0  0  0  0  0  0  0  0
   43.4552   -0.5803   94.1366 N   0  0  0  0  0  0  0  0  0  0  0  0
   46.7969   -3.0210   94.0276 O   0  0  0  0  0  0  0  0  0  0  0  0
   44.8777   -2.7428   92.8315 O   0  0  0  0  0  0  0  0  0  0  0  0
   49.0559    1.9603   94.3325 Br  0  0  0  0  0  0  0  0  0  0  0  0
   46.2930    3.0002   94.7240 H   0  0  0  0  0  0  0  0  0  0  0  0
   44.0768    2.0075   94.6483 H   0  0  0  0  0  0  0  0  0  0  0  0
   48.0984   -0.7731   93.8638 H   0  0  0  0  0  0  0  0  0  0  0  0
   38.9557   -1.0594   93.2836 H   0  0  0  0  0  0  0  0  0  0  0  0
   39.5257    0.6462   93.3841 H   0  0  0  0  0  0  0  0  0  0  0  0
   39.1908    0.0397   91.0309 H   0  0  0  0  0  0  0  0  0  0  0  0
   40.2274   -1.4215   91.1941 H   0  0  0  0  0  0  0  0  0  0  0  0
   41.2201   -1.9158   93.6149 H   0  0  0  0  0  0  0  0  0  0  0  0
   40.8482   -0.7311   94.9157 H   0  0  0  0  0  0  0  0  0  0  0  0
   42.6631   -1.1169   91.5891 H   0  0  0  0  0  0  0  0  0  0  0  0
   43.3242    0.5480   91.6108 H   0  0  0  0  0  0  0  0  0  0  0  0
   42.1238    1.0326   93.7710 H   0  0  0  0  0  0  0  0  0  0  0  0
   41.4137    0.3962   90.2165 H   0  0  0  0  0  0  0  0  0  0  0  0
   43.2670   -1.3378   94.8292 H   0  0  0  0  0  0  0  0  0  0  0  0
   44.2441   -2.1235   92.3402 H   0  0  0  0  0  0  0  0  0  0  0  0
  2  1  2  0
  5  4  1  0
  6  4  1  0
  9  3  2  0
  9  1  1  0
 10  2  1  0
 11 10  2  0
 11  8  1  0
 11  3  1  0
 12  7  1  0
 12  6  1  0
 13  7  1  0
 13  5  1  0
 12 14  1  0
 14 10  1  0
 15  8  2  0
 16  8  1  0
 17  9  1  0
  1 18  1  0
  2 19  1  0
  3 20  1  0
  4 21  1  0
  4 22  1  0
  5 23  1  0
  5 24  1  0
  6 25  1  0
  6 26  1  0
  7 27  1  0
  7 28  1  0
 12 29  1  1
 13 30  1  0
 14 31  1  0
 16 32  1  0
M  END
