
     RDKit          3D

 31 32  0  0  0  0  0  0  0  0999 V2000
   44.2281    3.8220   94.3930 C   0  0  0  0  0  0  0  0  0  0  0  0
   43.5722    3.7061   95.6090 C   0  0  0  0  0  0  0  0  0  0  0  0
   42.2261    3.1264   93.2367 C   0  0  0  0  0  0  0  0  0  0  0  0
   38.9885    4.9806   99.1613 C   0  0  0  0  0  0  0  0  0  0  0  0
   40.0117    5.3552  100.2488 C   0  0  0  0  0  0  0  0  0  0  0  0
   39.5523    3.9214   98.1989 C   0  0  0  0  0  0  0  0  0  0  0  0
   41.8518    4.6978   98.8454 C   0  0  0  0  0  0  0  0  0  0  0  0
   40.1032    2.6459   94.4079 C   0  0  0  0  0  0  0  0  0  0  0  0
   43.5560    3.5307   93.2114 C   0  0  0  0  0  0  0  0  0  0  0  0
   42.2144    3.3277   95.6637 C   0  0  0  0  0  0  0  0  0  0  0  0
   41.5323    3.0320   94.4483 C   0  0  0  0  0  0  0  0  0  0  0  0
   40.9335    4.3280   97.6694 C   0  0  1  0  0  0  0  0  0  0  0  0
   41.2864    5.7818   99.6564 N   0  0  0  0  0  0  0  0  0  0  0  0
   41.5464    3.2134   96.9349 N   0  0  0  0  0  0  0  0  0  0  0  0
   39.6273    1.7881   93.4314 O   0  0  0  0  0  0  0  0  0  0  0  0
   39.2960    3.1058   95.2512 O   0  0  0  0  0  0  0  0  0  0  0  0
   44.4308    3.6250   91.5312 Br  0  0  0  0  0  0  0  0  0  0  0  0
   45.2710    4.1115   94.3669 H   0  0  0  0  0  0  0  0  0  0  0  0
   44.1723    3.8797   96.4850 H   0  0  0  0  0  0  0  0  0  0  0  0
   41.7247    2.9053   92.3019 H   0  0  0  0  0  0  0  0  0  0  0  0
   38.7167    5.8919   98.5848 H   0  0  0  0  0  0  0  0  0  0  0  0
   38.0647    4.5909   99.6404 H   0  0  0  0  0  0  0  0  0  0  0  0
   40.1781    4.4897  100.9280 H   0  0  0  0  0  0  0  0  0  0  0  0
   39.6006    6.1847  100.8634 H   0  0  0  0  0  0  0  0  0  0  0  0
   39.6271    2.9524   98.7409 H   0  0  0  0  0  0  0  0  0  0  0  0
   38.8503    3.7822   97.3482 H   0  0  0  0  0  0  0  0  0  0  0  0
   42.8331    5.0309   98.4432 H   0  0  0  0  0  0  0  0  0  0  0  0
   42.0466    3.8086   99.4866 H   0  0  0  0  0  0  0  0  0  0  0  0
   40.7541    5.2102   97.0283 H   0  0  0  0  0  0  0  0  0  0  0  0
   41.1200    6.6177   99.0473 H   0  0  0  0  0  0  0  0  0  0  0  0
   41.7478    2.3833   97.5319 H   0  0  0  0  0  0  0  0  0  0  0  0
  2  1  2  0
  5  4  1  0
  6  4  1  0
  9  3  2  0
  9  1  1  0
 10  2  1  0
 11 10  2  0
 11  8  1  0
 11  3  1  0
 12  7  1  0
 12  6  1  0
 13  7  1  0
 13  5  1  0
 14 10  1  0
 12 14  1  0
 15  8  1  0
 16  8  2  0
 17  9  1  0
  1 18  1  0
  2 19  1  0
  3 20  1  0
  4 21  1  0
  4 22  1  0
  5 23  1  0
  5 24  1  0
  6 25  1  0
  6 26  1  0
  7 27  1  0
  7 28  1  0
 12 29  1  6
 13 30  1  0
 14 31  1  0
M  CHG  1  15  -1
M  END
