
     RDKit          3D

 32 33  0  0  0  0  0  0  0  0999 V2000
   45.4550   -0.0874   93.2841 C   0  0  0  0  0  0  0  0  0  0  0  0
   44.3469    0.1423   92.4731 C   0  0  0  0  0  0  0  0  0  0  0  0
   44.8778   -2.4214   93.4381 C   0  0  0  0  0  0  0  0  0  0  0  0
   38.5756   -1.1585   90.9289 C   0  0  0  0  0  0  0  0  0  0  0  0
   38.1646    0.1430   91.6149 C   0  0  0  0  0  0  0  0  0  0  0  0
   40.0533   -1.1215   90.5508 C   0  0  0  0  0  0  0  0  0  0  0  0
   40.4342    0.5369   92.3765 C   0  0  0  0  0  0  0  0  0  0  0  0
   42.9354   -3.4081   92.2823 C   0  0  0  0  0  0  0  0  0  0  0  0
   45.7199   -1.3662   93.7628 C   0  0  0  0  0  0  0  0  0  0  0  0
   43.4965   -0.9140   92.1027 C   0  0  0  0  0  0  0  0  0  0  0  0
   43.7616   -2.2211   92.6107 C   0  0  0  0  0  0  0  0  0  0  0  0
   40.9425   -0.7755   91.7566 C   0  0  2  0  0  0  0  0  0  0  0  0
   39.0251    0.4018   92.7751 N   0  0  0  0  0  0  0  0  0  0  0  0
   42.3341   -0.6517   91.2981 N   0  0  0  0  0  0  0  0  0  0  0  0
   43.1275   -4.5098   92.8693 O   0  0  0  0  0  0  0  0  0  0  0  0
   41.9853   -3.3400   91.2822 O   0  0  0  0  0  0  0  0  0  0  0  0
   47.2617   -1.6886   94.8344 Br  0  0  0  0  0  0  0  0  0  0  0  0
   46.1086    0.7353   93.5447 H   0  0  0  0  0  0  0  0  0  0  0  0
   44.1662    1.1559   92.1472 H   0  0  0  0  0  0  0  0  0  0  0  0
   45.1133   -3.4086   93.8175 H   0  0  0  0  0  0  0  0  0  0  0  0
   37.9607   -1.3082   90.0153 H   0  0  0  0  0  0  0  0  0  0  0  0
   38.3898   -2.0127   91.6165 H   0  0  0  0  0  0  0  0  0  0  0  0
   37.1105    0.0527   91.9551 H   0  0  0  0  0  0  0  0  0  0  0  0
   38.2198    0.9891   90.8926 H   0  0  0  0  0  0  0  0  0  0  0  0
   40.2003   -0.3695   89.7429 H   0  0  0  0  0  0  0  0  0  0  0  0
   40.3448   -2.1158   90.1471 H   0  0  0  0  0  0  0  0  0  0  0  0
   40.5548    1.3763   91.6537 H   0  0  0  0  0  0  0  0  0  0  0  0
   41.0343    0.7865   93.2759 H   0  0  0  0  0  0  0  0  0  0  0  0
   40.8609   -1.6018   92.4960 H   0  0  0  0  0  0  0  0  0  0  0  0
   38.7246    1.3118   93.1966 H   0  0  0  0  0  0  0  0  0  0  0  0
   42.4806   -0.5715   90.2681 H   0  0  0  0  0  0  0  0  0  0  0  0
   41.4395   -4.1537   91.0246 H   0  0  0  0  0  0  0  0  0  0  0  0
  2  1  2  0
  5  4  1  0
  6  4  1  0
  9  3  2  0
  9  1  1  0
 10  2  1  0
 11 10  2  0
 11  8  1  0
 11  3  1  0
 12  7  1  0
 12  6  1  0
 13  7  1  0
 13  5  1  0
 12 14  1  0
 14 10  1  0
 15  8  2  0
 16  8  1  0
 17  9  1  0
  1 18  1  0
  2 19  1  0
  3 20  1  0
  4 21  1  0
  4 22  1  0
  5 23  1  0
  5 24  1  0
  6 25  1  0
  6 26  1  0
  7 27  1  0
  7 28  1  0
 12 29  1  1
 13 30  1  0
 14 31  1  0
 16 32  1  0
M  END
