
     RDKit          3D

 32 33  0  0  0  0  0  0  0  0999 V2000
  -23.1010   -5.0874  -19.8070 C   0  0  0  0  0  0  0  0  0  0  0  0
  -22.3233   -5.4176  -20.9278 O   0  0  0  0  0  0  0  0  0  0  0  0
  -24.1351   -3.9833  -20.1198 C   0  0  1  0  0  0  0  0  0  0  0  0
  -23.5587   -2.6989  -20.0119 O   0  0  0  0  0  0  0  0  0  0  0  0
  -24.7640   -4.1210  -21.5031 C   0  0  1  0  0  0  0  0  0  0  0  0
  -26.1326   -3.8078  -21.4039 O   0  0  0  0  0  0  0  0  0  0  0  0
  -24.0436   -3.0650  -22.3111 C   0  0  0  0  0  0  0  0  0  0  0  0
  -23.7249   -2.0278  -21.2446 C   0  0  2  0  0  0  0  0  0  0  0  0
  -22.5018   -1.2557  -21.5284 N   0  0  0  0  0  0  0  0  0  0  0  0
  -22.5100    0.1136  -21.5970 C   0  0  0  0  0  0  0  0  0  0  0  0
  -23.5923    0.7626  -21.5714 O   0  0  0  0  0  0  0  0  0  0  0  0
  -21.3436    0.7969  -21.6892 N   0  0  0  0  0  0  0  0  0  0  0  0
  -20.1463    0.1659  -21.7115 C   0  0  0  0  0  0  0  0  0  0  0  0
  -18.9606    0.9531  -21.7847 N   0  0  0  0  0  0  0  0  0  0  0  0
  -20.1015   -1.2342  -21.6558 C   0  0  0  0  0  0  0  0  0  0  0  0
  -18.8059   -1.9964  -21.6641 C   0  0  0  0  0  0  0  0  0  0  0  0
  -21.3099   -1.9210  -21.5770 C   0  0  0  0  0  0  0  0  0  0  0  0
  -23.6360   -5.9941  -19.4450 H   0  0  0  0  0  0  0  0  0  0  0  0
  -22.4367   -4.7303  -18.9885 H   0  0  0  0  0  0  0  0  0  0  0  0
  -22.3754   -6.4044  -21.0189 H   0  0  0  0  0  0  0  0  0  0  0  0
  -24.9287   -4.0666  -19.3435 H   0  0  0  0  0  0  0  0  0  0  0  0
  -24.6245   -5.1386  -21.9378 H   0  0  0  0  0  0  0  0  0  0  0  0
  -26.4033   -3.4425  -22.2865 H   0  0  0  0  0  0  0  0  0  0  0  0
  -24.6759   -2.6426  -23.1222 H   0  0  0  0  0  0  0  0  0  0  0  0
  -23.1131   -3.4909  -22.7462 H   0  0  0  0  0  0  0  0  0  0  0  0
  -24.6044   -1.3535  -21.1368 H   0  0  0  0  0  0  0  0  0  0  0  0
  -18.2869    1.0234  -20.9912 H   0  0  0  0  0  0  0  0  0  0  0  0
  -18.7436    1.4855  -22.6564 H   0  0  0  0  0  0  0  0  0  0  0  0
  -18.1948   -1.7062  -20.7838 H   0  0  0  0  0  0  0  0  0  0  0  0
  -18.2443   -1.7715  -22.5950 H   0  0  0  0  0  0  0  0  0  0  0  0
  -18.9715   -3.0941  -21.6210 H   0  0  0  0  0  0  0  0  0  0  0  0
  -21.2836   -2.9937  -21.5142 H   0  0  0  0  0  0  0  0  0  0  0  0
  2  1  1  0
  3  1  1  0
  4  3  1  0
  5  3  1  0
  5  6  1  0
  7  5  1  0
  8  7  1  0
  8  4  1  0
  8  9  1  0
 10  9  1  0
 11 10  2  0
 12 10  1  0
 13 12  2  0
 14 13  1  0
 15 13  1  0
 16 15  1  0
 17 15  2  0
 17  9  1  0
  1 18  1  0
  1 19  1  0
  2 20  1  0
  3 21  1  1
  5 22  1  6
  6 23  1  0
  7 24  1  0
  7 25  1  0
  8 26  1  1
 14 27  1  0
 14 28  1  0
 16 29  1  0
 16 30  1  0
 16 31  1  0
 17 32  1  0
M  END
