
     RDKit          3D

 32 33  0  0  0  0  0  0  0  0999 V2000
   -8.7294   28.5976  -19.7965 C   0  0  0  0  0  0  0  0  0  0  0  0
   -7.9579   28.2746  -18.6737 O   0  0  0  0  0  0  0  0  0  0  0  0
  -10.2271   28.5936  -19.4484 C   0  0  1  0  0  0  0  0  0  0  0  0
  -10.5895   27.4110  -18.7659 O   0  0  0  0  0  0  0  0  0  0  0  0
  -10.6363   29.7920  -18.5989 C   0  0  1  0  0  0  0  0  0  0  0  0
  -11.8811   30.2552  -19.0555 O   0  0  0  0  0  0  0  0  0  0  0  0
  -10.7815   29.2035  -17.2125 C   0  0  0  0  0  0  0  0  0  0  0  0
  -11.1593   27.7625  -17.5207 C   0  0  2  0  0  0  0  0  0  0  0  0
  -10.6970   26.8032  -16.4981 N   0  0  0  0  0  0  0  0  0  0  0  0
  -11.2761   26.7416  -15.2587 C   0  0  0  0  0  0  0  0  0  0  0  0
  -12.1232   27.6090  -14.8969 O   0  0  0  0  0  0  0  0  0  0  0  0
  -10.9462   25.7358  -14.4048 N   0  0  0  0  0  0  0  0  0  0  0  0
  -10.0370   24.7814  -14.7394 C   0  0  0  0  0  0  0  0  0  0  0  0
   -9.7411   23.7418  -13.8084 N   0  0  0  0  0  0  0  0  0  0  0  0
   -9.4122   24.8328  -15.9899 C   0  0  0  0  0  0  0  0  0  0  0  0
   -8.3993   23.8093  -16.4241 C   0  0  0  0  0  0  0  0  0  0  0  0
   -9.7679   25.8660  -16.8519 C   0  0  0  0  0  0  0  0  0  0  0  0
   -8.4420   29.6058  -20.1712 H   0  0  0  0  0  0  0  0  0  0  0  0
   -8.5436   27.8560  -20.6053 H   0  0  0  0  0  0  0  0  0  0  0  0
   -7.0130   28.2849  -18.9764 H   0  0  0  0  0  0  0  0  0  0  0  0
  -10.7776   28.6101  -20.4159 H   0  0  0  0  0  0  0  0  0  0  0  0
   -9.8853   30.6173  -18.6002 H   0  0  0  0  0  0  0  0  0  0  0  0
  -12.1679   30.9665  -18.4247 H   0  0  0  0  0  0  0  0  0  0  0  0
   -9.8098   29.2573  -16.6747 H   0  0  0  0  0  0  0  0  0  0  0  0
  -11.5657   29.7175  -16.6148 H   0  0  0  0  0  0  0  0  0  0  0  0
  -12.2647   27.7145  -17.6434 H   0  0  0  0  0  0  0  0  0  0  0  0
  -10.4234   23.4207  -13.0875 H   0  0  0  0  0  0  0  0  0  0  0  0
   -8.8074   23.2752  -13.8346 H   0  0  0  0  0  0  0  0  0  0  0  0
   -8.7884   22.7738  -16.3212 H   0  0  0  0  0  0  0  0  0  0  0  0
   -8.1360   23.9698  -17.4907 H   0  0  0  0  0  0  0  0  0  0  0  0
   -7.4860   23.8965  -15.7988 H   0  0  0  0  0  0  0  0  0  0  0  0
   -9.3127   25.8967  -17.8250 H   0  0  0  0  0  0  0  0  0  0  0  0
  2  1  1  0
  3  1  1  0
  4  3  1  0
  5  3  1  0
  5  6  1  0
  7  5  1  0
  8  4  1  0
  8  7  1  0
  8  9  1  0
 10  9  1  0
 11 10  2  0
 12 10  1  0
 13 12  2  0
 14 13  1  0
 15 13  1  0
 16 15  1  0
 17 15  2  0
 17  9  1  0
  1 18  1  0
  1 19  1  0
  2 20  1  0
  3 21  1  6
  5 22  1  1
  6 23  1  0
  7 24  1  0
  7 25  1  0
  8 26  1  6
 14 27  1  0
 14 28  1  0
 16 29  1  0
 16 30  1  0
 16 31  1  0
 17 32  1  0
M  END
