
     RDKit          3D

 30 31  0  0  0  0  0  0  0  0999 V2000
   10.2336    3.1943   33.8220 N   0  0  0  0  0  0  0  0  0  0  0  0
   10.3397    2.7793   32.5317 C   0  0  0  0  0  0  0  0  0  0  0  0
   11.6273    2.6174   31.9442 N   0  0  0  0  0  0  0  0  0  0  0  0
    9.2135    2.5206   31.8054 N   0  0  0  0  0  0  0  0  0  0  0  0
    7.9724    2.6742   32.3524 C   0  0  0  0  0  0  0  0  0  0  0  0
    7.8516    3.1033   33.6800 C   0  0  0  0  0  0  0  0  0  0  0  0
    6.9441    2.4301   31.6627 O   0  0  0  0  0  0  0  0  0  0  0  0
    6.5719    3.3065   34.2913 N   0  0  0  0  0  0  0  0  0  0  0  0
    6.4219    3.7000   35.5302 C   0  0  0  0  0  0  0  0  0  0  0  0
    7.6270    3.8585   36.4561 C   0  0  0  0  0  0  0  0  0  0  0  0
    9.0162    3.3577   34.4040 C   0  0  0  0  0  0  0  0  0  0  0  0
    8.9146    3.7940   35.7570 N   0  0  0  0  0  0  0  0  0  0  0  0
    5.0047    3.8326   36.0746 C   0  0  1  0  0  0  0  0  0  0  0  0
    4.1765    2.9091   35.4177 O   0  0  0  0  0  0  0  0  0  0  0  0
    4.9011    3.6153   37.6058 C   0  0  1  0  0  0  0  0  0  0  0  0
    5.3595    4.7648   38.2729 O   0  0  0  0  0  0  0  0  0  0  0  0
    3.4562    3.3260   38.0358 C   0  0  0  0  0  0  0  0  0  0  0  0
   11.7267    2.2998   30.9545 H   0  0  0  0  0  0  0  0  0  0  0  0
   12.4887    2.8156   32.5000 H   0  0  0  0  0  0  0  0  0  0  0  0
    9.3004    2.2008   30.8139 H   0  0  0  0  0  0  0  0  0  0  0  0
    7.5952    3.0559   37.2226 H   0  0  0  0  0  0  0  0  0  0  0  0
    7.5753    4.8370   36.9749 H   0  0  0  0  0  0  0  0  0  0  0  0
    9.7881    3.9832   36.2981 H   0  0  0  0  0  0  0  0  0  0  0  0
    4.6456    4.8685   35.8640 H   0  0  0  0  0  0  0  0  0  0  0  0
    4.7244    2.0981   35.2489 H   0  0  0  0  0  0  0  0  0  0  0  0
    5.5199    2.7318   37.8891 H   0  0  0  0  0  0  0  0  0  0  0  0
    6.3517    4.7277   38.2616 H   0  0  0  0  0  0  0  0  0  0  0  0
    2.7398    3.6987   37.2735 H   0  0  0  0  0  0  0  0  0  0  0  0
    3.3066    2.2307   38.1440 H   0  0  0  0  0  0  0  0  0  0  0  0
    3.2371    3.8128   39.0101 H   0  0  0  0  0  0  0  0  0  0  0  0
  2  1  2  0
  3  2  1  0
  4  2  1  0
  5  4  1  0
  6  5  1  0
  7  5  2  0
  8  6  1  0
  9  8  2  0
 10  9  1  0
 11  6  2  0
 11  1  1  0
 12 11  1  0
 12 10  1  0
 13  9  1  0
 13 14  1  0
 15 13  1  0
 16 15  1  0
 15 17  1  0
  3 18  1  0
  3 19  1  0
  4 20  1  0
 10 21  1  0
 10 22  1  0
 12 23  1  0
 13 24  1  1
 14 25  1  0
 15 26  1  1
 16 27  1  0
 17 28  1  0
 17 29  1  0
 17 30  1  0
M  END
