
     RDKit          3D

 13 12  0  0  0  0  0  0  0  0999 V2000
   14.4700   51.7524   17.2801 C   0  0  0  0  0  0  0  0  0  0  0  0
   14.9513   52.2595   18.6502 C   0  0  0  0  0  0  0  0  0  0  0  0
   13.3436   52.6536   16.7455 C   0  0  0  0  0  0  0  0  0  0  0  0
   15.6109   51.7499   16.3201 C   0  0  0  0  0  0  0  0  0  0  0  0
   16.4993   51.7438   15.5734 N   0  0  0  0  0  0  0  0  0  0  0  0
   13.9955   50.4365   17.4077 O   0  0  0  0  0  0  0  0  0  0  0  0
   15.5310   53.2011   18.5383 H   0  0  0  0  0  0  0  0  0  0  0  0
   14.0817   52.4621   19.3121 H   0  0  0  0  0  0  0  0  0  0  0  0
   15.6019   51.5031   19.1408 H   0  0  0  0  0  0  0  0  0  0  0  0
   12.8189   53.1531   17.5884 H   0  0  0  0  0  0  0  0  0  0  0  0
   13.7544   53.4394   16.0756 H   0  0  0  0  0  0  0  0  0  0  0  0
   12.6030   52.0549   16.1718 H   0  0  0  0  0  0  0  0  0  0  0  0
   13.5895   50.1683   16.5413 H   0  0  0  0  0  0  0  0  0  0  0  0
  1  2  1  0
  3  1  1  0
  4  1  1  0
  5  4  3  0
  6  1  1  0
  2  7  1  0
  2  8  1  0
  2  9  1  0
  3 10  1  0
  3 11  1  0
  3 12  1  0
  6 13  1  0
M  END
