
     RDKit          3D

 13 12  0  0  0  0  0  0  0  0999 V2000
   12.6512   52.3782   15.7950 C   0  0  0  0  0  0  0  0  0  0  0  0
   13.1326   52.8854   17.1651 C   0  0  0  0  0  0  0  0  0  0  0  0
   11.5248   53.2794   15.2604 C   0  0  0  0  0  0  0  0  0  0  0  0
   13.7922   52.3757   14.8350 C   0  0  0  0  0  0  0  0  0  0  0  0
   14.6796   52.3779   14.0871 N   0  0  0  0  0  0  0  0  0  0  0  0
   12.1768   51.0624   15.9226 O   0  0  0  0  0  0  0  0  0  0  0  0
   14.2428   52.8843   17.2157 H   0  0  0  0  0  0  0  0  0  0  0  0
   12.7769   53.9243   17.3369 H   0  0  0  0  0  0  0  0  0  0  0  0
   12.7434   52.2378   17.9807 H   0  0  0  0  0  0  0  0  0  0  0  0
   11.7846   54.3494   15.4121 H   0  0  0  0  0  0  0  0  0  0  0  0
   11.3686   53.1091   14.1734 H   0  0  0  0  0  0  0  0  0  0  0  0
   10.5704   53.0678   15.7898 H   0  0  0  0  0  0  0  0  0  0  0  0
   11.2784   51.0147   15.5004 H   0  0  0  0  0  0  0  0  0  0  0  0
  1  2  1  0
  3  1  1  0
  4  1  1  0
  5  4  3  0
  6  1  1  0
  2  7  1  0
  2  8  1  0
  2  9  1  0
  3 10  1  0
  3 11  1  0
  3 12  1  0
  6 13  1  0
M  END
