
     RDKit          3D

 54 56  0  0  0  0  0  0  0  0999 V2000
   -3.7229  -34.1227  -48.9360 C   0  0  0  0  0  0  0  0  0  0  0  0
   -3.9682  -35.3730  -48.1083 C   0  0  0  0  0  0  0  0  0  0  0  0
   -2.8323  -36.2299  -48.1482 O   0  0  0  0  0  0  0  0  0  0  0  0
   -1.8946  -36.2642  -47.1208 C   0  0  0  0  0  0  0  0  0  0  0  0
   -1.9868  -35.4687  -46.1503 O   0  0  0  0  0  0  0  0  0  0  0  0
   -0.8436  -37.2228  -47.1478 N   0  0  0  0  0  0  0  0  0  0  0  0
   -0.7561  -38.2486  -48.1817 C   0  0  0  0  0  0  0  0  0  0  0  0
    0.1954  -37.8130  -49.2596 C   0  0  0  0  0  0  0  0  0  0  0  0
    1.5810  -37.9015  -49.0466 C   0  0  0  0  0  0  0  0  0  0  0  0
    2.4714  -37.4980  -50.0420 C   0  0  0  0  0  0  0  0  0  0  0  0
   -0.2881  -37.3047  -50.4765 C   0  0  0  0  0  0  0  0  0  0  0  0
    0.6036  -36.9125  -51.4752 C   0  0  0  0  0  0  0  0  0  0  0  0
    1.9807  -37.0035  -51.2543 C   0  0  0  0  0  0  0  0  0  0  0  0
    2.8811  -36.5204  -52.2383 N   0  0  0  0  0  0  0  0  0  0  0  0
    3.1913  -37.0853  -53.4110 C   0  0  0  0  0  0  0  0  0  0  0  0
    2.5152  -38.6261  -54.0115 S   0  0  0  0  0  0  0  0  0  0  0  0
    4.1007  -36.3525  -54.0742 N   0  0  0  0  0  0  0  0  0  0  0  0
    4.3799  -35.3009  -53.3151 N   0  0  0  0  0  0  0  0  0  0  0  0
    3.6333  -35.4079  -52.2010 C   0  0  0  0  0  0  0  0  0  0  0  0
    3.6437  -34.4399  -51.0899 C   0  0  0  0  0  0  0  0  0  0  0  0
    2.4370  -33.8692  -50.6603 C   0  0  0  0  0  0  0  0  0  0  0  0
    2.3743  -33.0907  -49.4851 C   0  0  0  0  0  0  0  0  0  0  0  0
    1.0517  -32.4705  -49.0471 C   0  0  0  0  0  0  0  0  0  0  0  0
    1.1817  -31.6594  -47.7538 C   0  0  0  0  0  0  0  0  0  0  0  0
   -0.0243  -33.5536  -48.9157 C   0  0  0  0  0  0  0  0  0  0  0  0
    3.5677  -32.8764  -48.7541 C   0  0  0  0  0  0  0  0  0  0  0  0
    3.5997  -32.1553  -47.5602 O   0  0  0  0  0  0  0  0  0  0  0  0
    4.7774  -33.4037  -49.2189 C   0  0  0  0  0  0  0  0  0  0  0  0
    4.8268  -34.1669  -50.3893 C   0  0  0  0  0  0  0  0  0  0  0  0
    6.0469  -34.6593  -50.8476 O   0  0  0  0  0  0  0  0  0  0  0  0
   -3.1009  -33.4132  -48.3587 H   0  0  0  0  0  0  0  0  0  0  0  0
   -4.6908  -33.6263  -49.1597 H   0  0  0  0  0  0  0  0  0  0  0  0
   -3.2188  -34.3794  -49.8921 H   0  0  0  0  0  0  0  0  0  0  0  0
   -4.8205  -35.9220  -48.5617 H   0  0  0  0  0  0  0  0  0  0  0  0
   -4.2635  -35.1099  -47.0690 H   0  0  0  0  0  0  0  0  0  0  0  0
   -0.0772  -37.1559  -46.4403 H   0  0  0  0  0  0  0  0  0  0  0  0
   -1.7596  -38.4776  -48.6020 H   0  0  0  0  0  0  0  0  0  0  0  0
   -0.3870  -39.1915  -47.7233 H   0  0  0  0  0  0  0  0  0  0  0  0
    1.9684  -38.2791  -48.1084 H   0  0  0  0  0  0  0  0  0  0  0  0
    3.5384  -37.5541  -49.8664 H   0  0  0  0  0  0  0  0  0  0  0  0
   -1.3533  -37.2148  -50.6505 H   0  0  0  0  0  0  0  0  0  0  0  0
    0.2252  -36.5124  -52.4075 H   0  0  0  0  0  0  0  0  0  0  0  0
    3.0256  -39.3374  -52.9097 H   0  0  0  0  0  0  0  0  0  0  0  0
    1.5444  -34.0503  -51.2435 H   0  0  0  0  0  0  0  0  0  0  0  0
    0.6999  -31.7283  -49.7861 H   0  0  0  0  0  0  0  0  0  0  0  0
    0.2741  -31.0379  -47.6306 H   0  0  0  0  0  0  0  0  0  0  0  0
    1.2745  -32.3129  -46.8611 H   0  0  0  0  0  0  0  0  0  0  0  0
    2.0605  -30.9808  -47.8061 H   0  0  0  0  0  0  0  0  0  0  0  0
    0.2286  -34.4253  -49.5564 H   0  0  0  0  0  0  0  0  0  0  0  0
   -0.0864  -33.9017  -47.8625 H   0  0  0  0  0  0  0  0  0  0  0  0
   -1.0167  -33.1586  -49.2225 H   0  0  0  0  0  0  0  0  0  0  0  0
    2.8666  -31.5480  -47.2255 H   0  0  0  0  0  0  0  0  0  0  0  0
    5.6874  -33.2162  -48.6624 H   0  0  0  0  0  0  0  0  0  0  0  0
    6.8861  -34.6119  -50.2815 H   0  0  0  0  0  0  0  0  0  0  0  0
  2  1  1  0
  3  2  1  0
  4  3  1  0
  5  4  2  0
  6  4  1  0
  7  6  1  0
  8  7  1  0
  9  8  2  0
 10  9  1  0
 11  8  1  0
 12 11  2  0
 13 12  1  0
 13 10  2  0
 14 13  1  0
 15 14  1  0
 16 15  1  0
 17 15  2  0
 18 17  1  0
 19 18  2  0
 19 14  1  0
 20 19  1  0
 21 20  2  0
 22 21  1  0
 23 22  1  0
 23 24  1  0
 25 23  1  0
 26 22  2  0
 27 26  1  0
 28 26  1  0
 29 20  1  0
 29 28  2  0
 30 29  1  0
  1 31  1  0
  1 32  1  0
  1 33  1  0
  2 34  1  0
  2 35  1  0
  6 36  1  0
  7 37  1  0
  7 38  1  0
  9 39  1  0
 10 40  1  0
 11 41  1  0
 12 42  1  0
 16 43  1  0
 21 44  1  0
 23 45  1  0
 24 46  1  0
 24 47  1  0
 24 48  1  0
 25 49  1  0
 25 50  1  0
 25 51  1  0
 27 52  1  0
 28 53  1  0
 30 54  1  0
M  END
