
     RDKit          3D

 32 34  0  0  0  0  0  0  0  0999 V2000
   13.2963   33.9460   46.3637 C   0  0  0  0  0  0  0  0  0  0  0  0
   12.6393   34.4384   45.2281 O   0  0  0  0  0  0  0  0  0  0  0  0
   14.4119   34.9056   46.8020 C   0  0  1  0  0  0  0  0  0  0  0  0
   15.0153   34.4072   47.9730 O   0  0  0  0  0  0  0  0  0  0  0  0
   15.4960   35.0603   45.7448 C   0  0  1  0  0  0  0  0  0  0  0  0
   16.0448   36.3520   45.8300 O   0  0  0  0  0  0  0  0  0  0  0  0
   16.5056   33.9988   46.1430 C   0  0  1  0  0  0  0  0  0  0  0  0
   17.8338   34.4539   46.0341 O   0  0  0  0  0  0  0  0  0  0  0  0
   16.1302   33.6278   47.5932 C   0  0  2  0  0  0  0  0  0  0  0  0
   14.7185   28.7779   45.9184 N   0  0  0  0  0  0  0  0  0  0  0  0
   14.9798   29.8632   45.1231 C   0  0  0  0  0  0  0  0  0  0  0  0
   15.3547   31.0506   45.6766 N   0  0  0  0  0  0  0  0  0  0  0  0
   15.4621   31.1287   47.0256 C   0  0  0  0  0  0  0  0  0  0  0  0
   15.2102   30.0635   47.8332 C   0  0  0  0  0  0  0  0  0  0  0  0
   14.8250   28.8492   47.2775 C   0  0  0  0  0  0  0  0  0  0  0  0
   14.5438   27.7086   48.0777 N   0  0  0  0  0  0  0  0  0  0  0  0
   15.3834   30.4144   49.1173 N   0  0  0  0  0  0  0  0  0  0  0  0
   15.7411   31.6944   49.1426 N   0  0  0  0  0  0  0  0  0  0  0  0
   15.8015   32.1753   47.8719 C   0  0  0  0  0  0  0  0  0  0  0  0
   12.5698   33.8067   47.1964 H   0  0  0  0  0  0  0  0  0  0  0  0
   13.7172   32.9487   46.1185 H   0  0  0  0  0  0  0  0  0  0  0  0
   12.5436   35.4181   45.3573 H   0  0  0  0  0  0  0  0  0  0  0  0
   13.9534   35.8933   47.0301 H   0  0  0  0  0  0  0  0  0  0  0  0
   15.1003   34.8813   44.7161 H   0  0  0  0  0  0  0  0  0  0  0  0
   16.5113   36.5221   44.9701 H   0  0  0  0  0  0  0  0  0  0  0  0
   16.3838   33.1713   45.4328 H   0  0  0  0  0  0  0  0  0  0  0  0
   18.4097   33.9033   46.6267 H   0  0  0  0  0  0  0  0  0  0  0  0
   16.9668   33.8919   48.2754 H   0  0  0  0  0  0  0  0  0  0  0  0
   14.8871   29.7770   44.0494 H   0  0  0  0  0  0  0  0  0  0  0  0
   15.3030   27.1751   48.5550 H   0  0  0  0  0  0  0  0  0  0  0  0
   13.5581   27.3862   48.1985 H   0  0  0  0  0  0  0  0  0  0  0  0
   15.2627   29.8179   49.9650 H   0  0  0  0  0  0  0  0  0  0  0  0
  2  1  1  0
  3  1  1  0
  4  3  1  0
  5  3  1  0
  5  6  1  0
  7  5  1  0
  7  8  1  0
  9  4  1  0
  9  7  1  0
 11 10  2  0
 12 11  1  0
 13 12  2  0
 14 13  1  0
 15 14  2  0
 15 10  1  0
 16 15  1  0
 17 14  1  0
 18 17  1  0
 19 18  2  0
 19 13  1  0
  9 19  1  0
  1 20  1  0
  1 21  1  0
  2 22  1  0
  3 23  1  1
  5 24  1  6
  6 25  1  0
  7 26  1  6
  8 27  1  0
  9 28  1  1
 11 29  1  0
 16 30  1  0
 16 31  1  0
 17 32  1  0
M  END
