
     RDKit          3D

 68 72  0  0  0  0  0  0  0  0999 V2000
   25.2632    5.7416    4.0046 C   0  0  0  0  0  0  0  0  0  0  0  0
   29.6066   -2.3031    5.0021 O   0  0  0  0  0  0  0  0  0  0  0  0
   23.8543    5.4913    3.5440 C   0  0  0  0  0  0  0  0  0  0  0  0
   23.2900    6.3099    2.8326 O   0  0  0  0  0  0  0  0  0  0  0  0
   23.1279    4.2526    4.0003 C   0  0  0  0  0  0  0  0  0  0  0  0
   29.0074   -0.1447    8.4473 O   0  0  0  0  0  0  0  0  0  0  0  0
   24.0389    3.0194    3.8372 C   0  0  1  0  0  0  0  0  0  0  0  0
   25.4519    3.2056    4.4964 C   0  0  2  0  0  0  0  0  0  0  0  0
   26.1174    4.4717    3.8680 C   0  0  0  0  0  0  0  0  0  0  0  0
   23.3370    1.7330    4.3171 C   0  0  0  0  0  0  0  0  0  0  0  0
   24.1891    0.4995    3.9886 C   0  0  0  0  0  0  0  0  0  0  0  0
   25.5923    0.6102    4.6104 C   0  0  2  0  0  0  0  0  0  0  0  0
   26.3028    1.9312    4.1479 C   0  0  2  0  0  0  0  0  0  0  0  0
   26.4863   -0.5855    4.2098 C   0  0  1  0  0  0  0  0  0  0  0  0
   27.8984   -0.5215    4.8246 C   0  0  2  0  0  0  0  0  0  0  0  0
   28.5818    0.7374    4.2384 C   0  0  0  0  0  0  0  0  0  0  0  0
   27.7871    2.0053    4.6252 C   0  0  0  0  0  0  0  0  0  0  0  0
   26.0029   -1.9970    4.5091 C   0  0  0  0  0  0  0  0  0  0  0  0
   27.2730   -2.8543    4.3679 C   0  0  0  0  0  0  0  0  0  0  0  0
   28.4655   -1.8613    4.3040 C   0  0  2  0  0  0  0  0  0  0  0  0
   25.3501    3.4043    6.0389 C   0  0  0  0  0  0  0  0  0  0  0  0
   27.8539   -0.5080    6.4041 C   0  0  0  0  0  0  0  0  0  0  0  0
   29.2056   -0.5743    7.1181 C   0  0  0  0  0  0  0  0  0  0  0  0
   30.2539    0.0069    9.0952 C   0  0  0  0  0  0  0  0  0  0  0  0
   30.0842    0.7110   10.4027 C   0  0  0  0  0  0  0  0  0  0  0  0
   30.2973    2.0981   10.4820 C   0  0  0  0  0  0  0  0  0  0  0  0
   30.1310    2.7651   11.6992 C   0  0  0  0  0  0  0  0  0  0  0  0
   29.7704    2.0494   12.8446 C   0  0  0  0  0  0  0  0  0  0  0  0
   29.5775    0.6664   12.7746 C   0  0  0  0  0  0  0  0  0  0  0  0
   29.7489   -0.0045   11.5630 C   0  0  0  0  0  0  0  0  0  0  0  0
   29.2033   -0.0241   13.8782 F   0  0  0  0  0  0  0  0  0  0  0  0
   30.2955    4.1095   11.7651 F   0  0  0  0  0  0  0  0  0  0  0  0
   25.7223    6.5503    3.3947 H   0  0  0  0  0  0  0  0  0  0  0  0
   25.2485    6.0915    5.0578 H   0  0  0  0  0  0  0  0  0  0  0  0
   29.3294   -2.9442    5.7054 H   0  0  0  0  0  0  0  0  0  0  0  0
   22.2105    4.1144    3.3864 H   0  0  0  0  0  0  0  0  0  0  0  0
   22.8045    4.3775    5.0544 H   0  0  0  0  0  0  0  0  0  0  0  0
   24.1916    2.9029    2.7381 H   0  0  0  0  0  0  0  0  0  0  0  0
   26.3151    4.2954    2.7871 H   0  0  0  0  0  0  0  0  0  0  0  0
   27.0916    4.6875    4.3543 H   0  0  0  0  0  0  0  0  0  0  0  0
   23.1246    1.7757    5.4062 H   0  0  0  0  0  0  0  0  0  0  0  0
   22.3603    1.6296    3.7958 H   0  0  0  0  0  0  0  0  0  0  0  0
   24.2683    0.3897    2.8842 H   0  0  0  0  0  0  0  0  0  0  0  0
   23.6708   -0.4010    4.3835 H   0  0  0  0  0  0  0  0  0  0  0  0
   25.4142    0.6018    5.6952 H   0  0  0  0  0  0  0  0  0  0  0  0
   26.3591    1.8836    3.0349 H   0  0  0  0  0  0  0  0  0  0  0  0
   26.5786   -0.5371    3.0955 H   0  0  0  0  0  0  0  0  0  0  0  0
   28.6141    0.6704    3.1279 H   0  0  0  0  0  0  0  0  0  0  0  0
   29.6422    0.8149    4.5536 H   0  0  0  0  0  0  0  0  0  0  0  0
   28.3032    2.8574    4.1392 H   0  0  0  0  0  0  0  0  0  0  0  0
   27.8342    2.1702    5.7171 H   0  0  0  0  0  0  0  0  0  0  0  0
   25.5947   -2.0619    5.5414 H   0  0  0  0  0  0  0  0  0  0  0  0
   25.2224   -2.3184    3.7854 H   0  0  0  0  0  0  0  0  0  0  0  0
   27.2315   -3.4560    3.4337 H   0  0  0  0  0  0  0  0  0  0  0  0
   27.3443   -3.5530    5.2292 H   0  0  0  0  0  0  0  0  0  0  0  0
   28.7541   -1.7439    3.2348 H   0  0  0  0  0  0  0  0  0  0  0  0
   26.2617    3.8731    6.4556 H   0  0  0  0  0  0  0  0  0  0  0  0
   24.5058    4.0476    6.3439 H   0  0  0  0  0  0  0  0  0  0  0  0
   25.2408    2.4311    6.5589 H   0  0  0  0  0  0  0  0  0  0  0  0
   27.3980    0.4148    6.7915 H   0  0  0  0  0  0  0  0  0  0  0  0
   27.2128   -1.3288    6.7908 H   0  0  0  0  0  0  0  0  0  0  0  0
   29.9367    0.0884    6.6155 H   0  0  0  0  0  0  0  0  0  0  0  0
   29.5970   -1.6131    7.1114 H   0  0  0  0  0  0  0  0  0  0  0  0
   30.6976   -0.9936    9.2945 H   0  0  0  0  0  0  0  0  0  0  0  0
   30.9685    0.5962    8.4735 H   0  0  0  0  0  0  0  0  0  0  0  0
   30.5751    2.6645    9.6014 H   0  0  0  0  0  0  0  0  0  0  0  0
   29.6314    2.5677   13.7847 H   0  0  0  0  0  0  0  0  0  0  0  0
   29.6041   -1.0773   11.5309 H   0  0  0  0  0  0  0  0  0  0  0  0
  3  1  1  0
  4  3  2  0
  5  3  1  0
  7  5  1  0
  8  7  1  0
  9  8  1  0
  9  1  1  0
 10  7  1  0
 11 10  1  0
 12 11  1  0
 13 12  1  0
 13  8  1  0
 14 12  1  0
 15 14  1  0
 16 15  1  0
 17 16  1  0
 13 17  1  0
 14 18  1  0
 19 18  1  0
 20 19  1  0
 20 15  1  0
 20  2  1  0
  8 21  1  1
 15 22  1  1
 23 22  1  0
 23  6  1  0
 24  6  1  0
 25 24  1  0
 26 25  2  0
 27 26  1  0
 28 27  2  0
 29 28  1  0
 30 25  1  0
 30 29  2  0
 31 29  1  0
 32 27  1  0
  1 33  1  0
  1 34  1  0
  2 35  1  0
  5 36  1  0
  5 37  1  0
  7 38  1  6
  9 39  1  0
  9 40  1  0
 10 41  1  0
 10 42  1  0
 11 43  1  0
 11 44  1  0
 12 45  1  1
 13 46  1  6
 14 47  1  6
 16 48  1  0
 16 49  1  0
 17 50  1  0
 17 51  1  0
 18 52  1  0
 18 53  1  0
 19 54  1  0
 19 55  1  0
 20 56  1  6
 21 57  1  0
 21 58  1  0
 21 59  1  0
 22 60  1  0
 22 61  1  0
 23 62  1  0
 23 63  1  0
 24 64  1  0
 24 65  1  0
 26 66  1  0
 28 67  1  0
 30 68  1  0
M  END
