
     RDKit          3D

 49 51  0  0  0  0  0  0  0  0999 V2000
  -12.4896   -9.5737   -0.2139 C   0  0  0  0  0  0  0  0  0  0  0  0
  -10.3803   -9.9623    0.8930 C   0  0  0  0  0  0  0  0  0  0  0  0
  -12.3291   -8.2130   -0.0241 C   0  0  0  0  0  0  0  0  0  0  0  0
  -10.1906   -8.5868    1.0370 C   0  0  0  0  0  0  0  0  0  0  0  0
   -9.3037   -4.1682   -2.6742 C   0  0  0  0  0  0  0  0  0  0  0  0
   -9.9766   -4.0970   -0.1970 C   0  0  1  0  0  0  0  0  0  0  0  0
   -8.1938   -3.9263   -3.6336 C   0  0  0  0  0  0  0  0  0  0  0  0
  -11.3065   -3.4617   -0.4777 C   0  0  0  0  0  0  0  0  0  0  0  0
  -10.9628   -6.2344    0.7293 C   0  0  0  0  0  0  0  0  0  0  0  0
  -11.5220  -10.4635    0.2544 C   0  0  0  0  0  0  0  0  0  0  0  0
  -10.1460   -5.5399   -0.2014 N   0  0  0  0  0  0  0  0  0  0  0  0
   -7.0059   -3.8120   -3.2294 O   0  0  0  0  0  0  0  0  0  0  0  0
  -11.4625   -2.2212   -0.3370 O   0  0  0  0  0  0  0  0  0  0  0  0
  -11.4855   -5.6092    1.6927 O   0  0  0  0  0  0  0  0  0  0  0  0
  -12.3504   -4.2391   -0.9573 O   0  0  0  0  0  0  0  0  0  0  0  0
  -11.6330  -12.2402    0.0000 S   0  0  0  0  0  0  0  0  0  0  0  0
  -11.1591   -7.6922    0.5720 C   0  0  0  0  0  0  0  0  0  0  0  0
   -8.9300   -3.7043   -1.2553 C   0  0  0  0  0  0  0  0  0  0  0  0
   -8.4819   -3.8692   -4.9799 O   0  0  0  0  0  0  0  0  0  0  0  0
  -13.3742  -12.3960   -0.4270 C   0  0  0  0  0  0  0  0  0  0  0  0
  -14.0281  -12.0662   -4.0953 N   0  0  0  0  0  0  0  0  0  0  0  0
  -15.3815  -12.2827   -4.0611 C   0  0  0  0  0  0  0  0  0  0  0  0
  -16.1362  -12.2604   -5.2676 N   0  0  0  0  0  0  0  0  0  0  0  0
  -14.3606  -12.6343    0.5356 C   0  0  0  0  0  0  0  0  0  0  0  0
  -16.0071  -12.5481   -2.8838 N   0  0  0  0  0  0  0  0  0  0  0  0
  -15.2722  -12.5736   -1.7504 C   0  0  0  0  0  0  0  0  0  0  0  0
  -15.8678  -12.8230   -0.2061 S   0  0  0  0  0  0  0  0  0  0  0  0
  -13.9026  -12.3538   -1.7361 C   0  0  0  0  0  0  0  0  0  0  0  0
  -13.2637  -12.1116   -2.9642 C   0  0  0  0  0  0  0  0  0  0  0  0
  -12.0178  -11.9286   -3.0425 O   0  0  0  0  0  0  0  0  0  0  0  0
  -14.1585  -12.6311    2.0183 C   0  0  0  0  0  0  0  0  0  0  0  0
  -13.3849   -9.9048   -0.7148 H   0  0  0  0  0  0  0  0  0  0  0  0
   -9.6184  -10.6420    1.2537 H   0  0  0  0  0  0  0  0  0  0  0  0
  -13.1580   -7.6081   -0.3456 H   0  0  0  0  0  0  0  0  0  0  0  0
   -9.2868   -8.2303    1.5154 H   0  0  0  0  0  0  0  0  0  0  0  0
   -9.5063   -5.2569   -2.7038 H   0  0  0  0  0  0  0  0  0  0  0  0
  -10.2162   -3.6352   -3.0183 H   0  0  0  0  0  0  0  0  0  0  0  0
   -9.6321   -3.7592    0.8055 H   0  0  0  0  0  0  0  0  0  0  0  0
   -9.3984   -6.0741   -0.6847 H   0  0  0  0  0  0  0  0  0  0  0  0
  -13.2487   -3.8255   -1.1766 H   0  0  0  0  0  0  0  0  0  0  0  0
   -7.9538   -4.1509   -0.9646 H   0  0  0  0  0  0  0  0  0  0  0  0
   -8.8003   -2.5995   -1.2527 H   0  0  0  0  0  0  0  0  0  0  0  0
   -7.7485   -3.7193   -5.6625 H   0  0  0  0  0  0  0  0  0  0  0  0
  -13.5643  -11.8757   -5.0127 H   0  0  0  0  0  0  0  0  0  0  0  0
  -16.9441  -12.9074   -5.4049 H   0  0  0  0  0  0  0  0  0  0  0  0
  -15.8877  -11.5944   -6.0325 H   0  0  0  0  0  0  0  0  0  0  0  0
  -13.3129  -11.9660    2.2917 H   0  0  0  0  0  0  0  0  0  0  0  0
  -13.9346  -13.6619    2.3638 H   0  0  0  0  0  0  0  0  0  0  0  0
  -15.0770  -12.2653    2.5226 H   0  0  0  0  0  0  0  0  0  0  0  0
  3  1  2  0
  4  2  1  0
  7  5  1  0
  8  6  1  0
 10  1  1  0
 10  2  2  0
 11  6  1  0
 11  9  1  0
 12  7  2  0
 13  8  2  0
 14  9  2  0
 15  8  1  0
 16 10  1  0
 17  3  1  0
 17  9  1  0
 17  4  2  0
  6 18  1  0
 18  5  1  0
 19  7  1  0
 20 16  1  0
 22 21  1  0
 23 22  1  0
 24 20  2  0
 25 22  2  0
 26 25  1  0
 27 26  1  0
 27 24  1  0
 28 26  2  0
 28 20  1  0
 29 28  1  0
 29 21  1  0
 30 29  2  0
 31 24  1  0
  1 32  1  0
  2 33  1  0
  3 34  1  0
  4 35  1  0
  5 36  1  0
  5 37  1  0
  6 38  1  1
 11 39  1  0
 15 40  1  0
 18 41  1  0
 18 42  1  0
 19 43  1  0
 21 44  1  0
 23 45  1  0
 23 46  1  0
 31 47  1  0
 31 48  1  0
 31 49  1  0
M  END
