
     RDKit          3D

 34 35  0  0  0  0  0  0  0  0999 V2000
   29.9197   21.0320   -4.6540 P   0  0  0  0  0  0  0  0  0  0  0  0
   30.7981   19.8134   -4.7816 O   0  0  0  0  0  0  0  0  0  0  0  0
   29.5345   21.6131   -6.1822 O   0  0  0  0  0  0  0  0  0  0  0  0
   30.7218   22.2148   -3.7768 O   0  0  0  0  0  0  0  0  0  0  0  0
   28.0477   19.3170   -4.2287 C   0  0  0  0  0  0  0  0  0  0  0  0
   28.5672   20.5357   -3.7784 O   0  0  0  0  0  0  0  0  0  0  0  0
   27.7854   18.4888   -2.9584 C   0  0  1  0  0  0  0  0  0  0  0  0
   26.7402   19.0592   -2.2017 O   0  0  0  0  0  0  0  0  0  0  0  0
   27.4142   17.0434   -3.3018 C   0  0  1  0  0  0  0  0  0  0  0  0
   27.8946   16.1721   -2.3051 O   0  0  0  0  0  0  0  0  0  0  0  0
   25.9072   17.0983   -3.2751 C   0  0  1  0  0  0  0  0  0  0  0  0
   25.3403   15.8521   -2.9610 O   0  0  0  0  0  0  0  0  0  0  0  0
   25.6673   18.1406   -2.1831 C   0  0  2  0  0  0  0  0  0  0  0  0
   24.3881   18.8752   -2.3170 N   0  0  0  0  0  0  0  0  0  0  0  0
   24.2494   19.9735   -3.1393 C   0  0  0  0  0  0  0  0  0  0  0  0
   25.1639   20.3052   -3.9379 O   0  0  0  0  0  0  0  0  0  0  0  0
   23.1203   20.7320   -3.0906 N   0  0  0  0  0  0  0  0  0  0  0  0
   22.1241   20.4538   -2.2139 C   0  0  0  0  0  0  0  0  0  0  0  0
   21.1116   21.2022   -2.1576 O   0  0  0  0  0  0  0  0  0  0  0  0
   22.2315   19.3462   -1.3778 C   0  0  0  0  0  0  0  0  0  0  0  0
   23.3637   18.5432   -1.4736 C   0  0  0  0  0  0  0  0  0  0  0  0
   21.2802   19.0713   -0.4490 F   0  0  0  0  0  0  0  0  0  0  0  0
   28.9326   22.3826   -6.0186 H   0  0  0  0  0  0  0  0  0  0  0  0
   30.0908   22.4671   -3.0562 H   0  0  0  0  0  0  0  0  0  0  0  0
   28.7821   18.7991   -4.8792 H   0  0  0  0  0  0  0  0  0  0  0  0
   27.0914   19.4812   -4.7735 H   0  0  0  0  0  0  0  0  0  0  0  0
   28.7089   18.5071   -2.3367 H   0  0  0  0  0  0  0  0  0  0  0  0
   27.7728   16.7155   -4.3060 H   0  0  0  0  0  0  0  0  0  0  0  0
   28.2184   16.7459   -1.5626 H   0  0  0  0  0  0  0  0  0  0  0  0
   25.5244   17.4500   -4.2591 H   0  0  0  0  0  0  0  0  0  0  0  0
   25.9497   15.4229   -2.3052 H   0  0  0  0  0  0  0  0  0  0  0  0
   25.7133   17.6142   -1.2007 H   0  0  0  0  0  0  0  0  0  0  0  0
   23.0318   21.5632   -3.7195 H   0  0  0  0  0  0  0  0  0  0  0  0
   23.4468   17.6945   -0.8048 H   0  0  0  0  0  0  0  0  0  0  0  0
  2  1  2  0
  3  1  1  0
  4  1  1  0
  6  1  1  0
  6  5  1  0
  7  5  1  0
  8  7  1  0
  9  7  1  0
  9 10  1  0
 11  9  1  0
 11 12  1  0
 13 11  1  0
 13  8  1  0
 13 14  1  0
 15 14  1  0
 16 15  2  0
 17 15  1  0
 18 17  1  0
 19 18  2  0
 20 18  1  0
 21 20  2  0
 21 14  1  0
 22 20  1  0
  3 23  1  0
  4 24  1  0
  5 25  1  0
  5 26  1  0
  7 27  1  1
  9 28  1  6
 10 29  1  0
 11 30  1  6
 12 31  1  0
 13 32  1  1
 17 33  1  0
 21 34  1  0
M  END
