
     RDKit          3D

 19 18  0  0  0  0  0  0  0  0999 V2000
   58.7731    8.1205   27.8739 P   0  0  0  0  0  0  0  0  0  0  0  0
   58.3313    7.1816   29.3456 C   0  0  0  0  0  0  0  0  0  0  0  0
   57.6330    8.0772   30.2564 N   0  0  0  0  0  0  0  0  0  0  0  0
   58.8025    9.5995   28.1845 O   0  0  0  0  0  0  0  0  0  0  0  0
   58.4057    9.2730   30.5816 C   0  0  0  0  0  0  0  0  0  0  0  0
   57.6264    7.7894   26.7040 O   0  0  0  0  0  0  0  0  0  0  0  0
   59.7956    8.8763   30.9761 C   0  0  0  0  0  0  0  0  0  0  0  0
   60.2849    7.6324   27.3433 O   0  0  0  0  0  0  0  0  0  0  0  0
   60.1637    7.6680   30.9533 O   0  0  0  0  0  0  0  0  0  0  0  0
   60.6829    9.8572   31.3617 O   0  0  0  0  0  0  0  0  0  0  0  0
   59.2523    6.7735   29.8164 H   0  0  0  0  0  0  0  0  0  0  0  0
   57.6654    6.3414   29.0492 H   0  0  0  0  0  0  0  0  0  0  0  0
   56.7253    8.3660   29.8176 H   0  0  0  0  0  0  0  0  0  0  0  0
   57.4460    7.5599   31.1489 H   0  0  0  0  0  0  0  0  0  0  0  0
   58.4642    9.9485   29.6994 H   0  0  0  0  0  0  0  0  0  0  0  0
   57.9311    9.8195   31.4264 H   0  0  0  0  0  0  0  0  0  0  0  0
   57.0461    8.5919   26.6800 H   0  0  0  0  0  0  0  0  0  0  0  0
   60.1232    6.7793   26.8668 H   0  0  0  0  0  0  0  0  0  0  0  0
   60.3603   10.6964   31.8286 H   0  0  0  0  0  0  0  0  0  0  0  0
  2  1  1  0
  3  2  1  0
  4  1  2  0
  5  3  1  0
  6  1  1  0
  7  5  1  0
  8  1  1  0
  9  7  2  0
 10  7  1  0
  2 11  1  0
  2 12  1  0
  3 13  1  0
  3 14  1  0
  5 15  1  0
  5 16  1  0
  6 17  1  0
  8 18  1  0
 10 19  1  0
M  CHG  1   3   1
M  END
