
     RDKit          3D

 49 52  0  0  0  0  0  0  0  0999 V2000
   27.0735    5.5961    4.9755 C   0  0  0  0  0  0  0  0  0  0  0  0
   26.2269    6.8309    5.2518 C   0  0  0  0  0  0  0  0  0  0  0  0
   24.8493    6.6291    4.7180 C   0  0  0  0  0  0  0  0  0  0  0  0
   24.1997    7.6122    4.2786 O   0  0  0  0  0  0  0  0  0  0  0  0
   24.2410    5.2925    4.7165 C   0  0  0  0  0  0  0  0  0  0  0  0
   24.9534    4.1901    5.0080 C   0  0  0  0  0  0  0  0  0  0  0  0
   24.2525    2.8520    5.0143 C   0  0  0  0  0  0  0  0  0  0  0  0
   25.1105    1.7941    4.3279 C   0  0  0  0  0  0  0  0  0  0  0  0
   26.4916    1.7056    4.9984 C   0  0  2  0  0  0  0  0  0  0  0  0
   27.2262    3.0764    4.8800 C   0  0  1  0  0  0  0  0  0  0  0  0
   26.4105    4.2751    5.4805 C   0  0  1  0  0  0  0  0  0  0  0  0
   28.6866    2.9994    5.4196 C   0  0  0  0  0  0  0  0  0  0  0  0
   29.4980    1.8632    4.7736 C   0  0  0  0  0  0  0  0  0  0  0  0
   28.7673    0.5197    4.9229 C   0  0  1  0  0  0  0  0  0  0  0  0
   27.3687    0.6444    4.3078 C   0  0  1  0  0  0  0  0  0  0  0  0
   26.8768   -0.7936    4.2247 C   0  0  0  0  0  0  0  0  0  0  0  0
   28.1562   -1.5959    3.9117 C   0  0  0  0  0  0  0  0  0  0  0  0
   29.3366   -0.6091    4.0459 C   0  0  2  0  0  0  0  0  0  0  0  0
   30.4768   -1.2151    4.6000 O   0  0  0  0  0  0  0  0  0  0  0  0
   28.7483    0.0856    6.4230 C   0  0  0  0  0  0  0  0  0  0  0  0
   26.4002    4.2582    7.0285 C   0  0  0  0  0  0  0  0  0  0  0  0
   28.0564    5.7626    5.4633 H   0  0  0  0  0  0  0  0  0  0  0  0
   27.2504    5.5454    3.8775 H   0  0  0  0  0  0  0  0  0  0  0  0
   26.6963    7.7119    4.7618 H   0  0  0  0  0  0  0  0  0  0  0  0
   26.1743    7.0339    6.3421 H   0  0  0  0  0  0  0  0  0  0  0  0
   23.2005    5.2093    4.4248 H   0  0  0  0  0  0  0  0  0  0  0  0
   24.0527    2.5510    6.0654 H   0  0  0  0  0  0  0  0  0  0  0  0
   23.2736    2.9005    4.4879 H   0  0  0  0  0  0  0  0  0  0  0  0
   24.5884    0.8162    4.4077 H   0  0  0  0  0  0  0  0  0  0  0  0
   25.2151    2.0421    3.2480 H   0  0  0  0  0  0  0  0  0  0  0  0
   26.3375    1.4293    6.0608 H   0  0  0  0  0  0  0  0  0  0  0  0
   27.3201    3.2749    3.7863 H   0  0  0  0  0  0  0  0  0  0  0  0
   29.2317    3.9366    5.1922 H   0  0  0  0  0  0  0  0  0  0  0  0
   28.6986    2.8818    6.5208 H   0  0  0  0  0  0  0  0  0  0  0  0
   30.5042    1.8082    5.2435 H   0  0  0  0  0  0  0  0  0  0  0  0
   29.6492    2.1011    3.6970 H   0  0  0  0  0  0  0  0  0  0  0  0
   27.4794    0.9822    3.2461 H   0  0  0  0  0  0  0  0  0  0  0  0
   26.4259   -1.1179    5.1878 H   0  0  0  0  0  0  0  0  0  0  0  0
   26.1260   -0.9128    3.4134 H   0  0  0  0  0  0  0  0  0  0  0  0
   28.1185   -2.0079    2.8797 H   0  0  0  0  0  0  0  0  0  0  0  0
   28.2583   -2.4402    4.6283 H   0  0  0  0  0  0  0  0  0  0  0  0
   29.5898   -0.2073    3.0348 H   0  0  0  0  0  0  0  0  0  0  0  0
   31.0601   -0.4778    4.9182 H   0  0  0  0  0  0  0  0  0  0  0  0
   28.1100   -0.7969    6.6139 H   0  0  0  0  0  0  0  0  0  0  0  0
   28.3523    0.9132    7.0493 H   0  0  0  0  0  0  0  0  0  0  0  0
   29.7605   -0.1538    6.8071 H   0  0  0  0  0  0  0  0  0  0  0  0
   25.4836    4.7337    7.4322 H   0  0  0  0  0  0  0  0  0  0  0  0
   27.2681    4.8181    7.4372 H   0  0  0  0  0  0  0  0  0  0  0  0
   26.4603    3.2226    7.4235 H   0  0  0  0  0  0  0  0  0  0  0  0
  2  1  1  0
  3  2  1  0
  4  3  2  0
  5  3  1  0
  6  5  2  0
  7  6  1  0
  8  7  1  0
  9  8  1  0
 10  9  1  0
 11  6  1  0
 11  1  1  0
 11 10  1  0
 10 12  1  0
 13 12  1  0
 14 13  1  0
 15  9  1  0
 15 14  1  0
 15 16  1  0
 17 16  1  0
 18 17  1  0
 18 14  1  0
 18 19  1  0
 14 20  1  1
 11 21  1  1
  1 22  1  0
  1 23  1  0
  2 24  1  0
  2 25  1  0
  5 26  1  0
  7 27  1  0
  7 28  1  0
  8 29  1  0
  8 30  1  0
  9 31  1  1
 10 32  1  6
 12 33  1  0
 12 34  1  0
 13 35  1  0
 13 36  1  0
 15 37  1  6
 16 38  1  0
 16 39  1  0
 17 40  1  0
 17 41  1  0
 18 42  1  6
 19 43  1  0
 20 44  1  0
 20 45  1  0
 20 46  1  0
 21 47  1  0
 21 48  1  0
 21 49  1  0
M  END
