
     RDKit          3D

 21 20  0  0  0  0  0  0  0  0999 V2000
   34.5218   28.3629  -13.1765 N   0  0  0  0  0  0  0  0  0  0  0  0
   35.5701   28.3772  -12.1504 C   0  0  2  0  0  0  0  0  0  0  0  0
   36.8977   27.9561  -12.7103 C   0  0  0  0  0  0  0  0  0  0  0  0
   37.9559   28.4567  -12.2442 O   0  0  0  0  0  0  0  0  0  0  0  0
   35.1842   27.4793  -10.9523 C   0  0  0  0  0  0  0  0  0  0  0  0
   34.6438   28.2898   -9.7704 C   0  0  0  0  0  0  0  0  0  0  0  0
   32.5801   29.4551   -8.3298 C   0  0  0  0  0  0  0  0  0  0  0  0
   32.5840   29.5743  -10.9559 O   0  0  0  0  0  0  0  0  0  0  0  0
   36.9636   27.0280  -13.7366 O   0  0  0  0  0  0  0  0  0  0  0  0
   32.8617   28.5591   -9.8565 S   0  0  0  0  0  0  0  0  0  0  0  0
   34.9117   28.7472  -14.0683 H   0  0  0  0  0  0  0  0  0  0  0  0
   34.2179   27.3777  -13.3563 H   0  0  0  0  0  0  0  0  0  0  0  0
   35.7018   29.4271  -11.8070 H   0  0  0  0  0  0  0  0  0  0  0  0
   36.0816   26.9379  -10.5788 H   0  0  0  0  0  0  0  0  0  0  0  0
   34.4547   26.6981  -11.2593 H   0  0  0  0  0  0  0  0  0  0  0  0
   34.8362   27.7190   -8.8366 H   0  0  0  0  0  0  0  0  0  0  0  0
   35.1724   29.2612   -9.6655 H   0  0  0  0  0  0  0  0  0  0  0  0
   32.6581   30.5474   -8.5102 H   0  0  0  0  0  0  0  0  0  0  0  0
   31.5654   29.2201   -7.9475 H   0  0  0  0  0  0  0  0  0  0  0  0
   33.3333   29.1499   -7.5744 H   0  0  0  0  0  0  0  0  0  0  0  0
   36.4819   26.1396  -13.6659 H   0  0  0  0  0  0  0  0  0  0  0  0
  2  1  1  0
  3  2  1  0
  4  3  2  0
  5  2  1  0
  6  5  1  0
  9  3  1  0
 10  8  2  0
 10  7  1  1
 10  6  1  0
  1 11  1  0
  1 12  1  0
  2 13  1  1
  5 14  1  0
  5 15  1  0
  6 16  1  0
  6 17  1  0
  7 18  1  0
  7 19  1  0
  7 20  1  0
  9 21  1  0
M  END
