
     RDKit          3D

 49 49  0  0  0  0  0  0  0  0999 V2000
   30.9892   65.8803   10.2220 C   0  0  1  0  0  0  0  0  0  0  0  0
   30.6159   65.0060   11.3496 N   0  0  0  0  0  0  0  0  0  0  0  0
   32.0558   65.1606    9.3798 C   0  0  2  0  0  0  0  0  0  0  0  0
   33.1860   64.8942   10.1682 O   0  0  0  0  0  0  0  0  0  0  0  0
   32.4109   66.0676    8.1942 C   0  0  1  0  0  0  0  0  0  0  0  0
   33.5119   65.5573    7.4903 O   0  0  0  0  0  0  0  0  0  0  0  0
   31.1911   66.1594    7.2594 C   0  0  2  0  0  0  0  0  0  0  0  0
   31.4222   67.1741    6.3157 O   0  0  0  0  0  0  0  0  0  0  0  0
   29.8849   66.4155    8.0093 C   0  0  0  0  0  0  0  0  0  0  0  0
   28.6590   66.7863    7.1943 C   0  0  0  0  0  0  0  0  0  0  0  0
   27.4599   66.4826    7.8563 O   0  0  0  0  0  0  0  0  0  0  0  0
   29.7950   66.2507    9.3514 C   0  0  0  0  0  0  0  0  0  0  0  0
   29.5055   65.4835   12.1831 C   0  0  0  0  0  0  0  0  0  0  0  0
   29.4431   67.0210   12.2630 C   0  0  0  0  0  0  0  0  0  0  0  0
   28.0255   67.5696   12.4800 C   0  0  0  0  0  0  0  0  0  0  0  0
   26.8655   66.5997   12.1717 C   0  0  0  0  0  0  0  0  0  0  0  0
   26.6421   66.3161   10.6757 C   0  0  0  0  0  0  0  0  0  0  0  0
   26.1102   64.9109   10.3830 C   0  0  0  0  0  0  0  0  0  0  0  0
   24.7294   64.6293   11.0069 C   0  0  0  0  0  0  0  0  0  0  0  0
   24.1540   63.2862   10.5564 C   0  0  0  0  0  0  0  0  0  0  0  0
   31.4430   66.8199   10.6093 H   0  0  0  0  0  0  0  0  0  0  0  0
   31.4475   64.9024   11.9783 H   0  0  0  0  0  0  0  0  0  0  0  0
   31.6302   64.1968    9.0063 H   0  0  0  0  0  0  0  0  0  0  0  0
   33.0210   64.0305   10.6292 H   0  0  0  0  0  0  0  0  0  0  0  0
   32.6632   67.0854    8.5801 H   0  0  0  0  0  0  0  0  0  0  0  0
   34.3022   65.6433    8.0852 H   0  0  0  0  0  0  0  0  0  0  0  0
   31.0872   65.1754    6.7415 H   0  0  0  0  0  0  0  0  0  0  0  0
   31.4915   66.7401    5.4254 H   0  0  0  0  0  0  0  0  0  0  0  0
   28.6857   67.8792    7.0029 H   0  0  0  0  0  0  0  0  0  0  0  0
   28.6834   66.2718    6.2072 H   0  0  0  0  0  0  0  0  0  0  0  0
   27.3557   65.4961    7.8123 H   0  0  0  0  0  0  0  0  0  0  0  0
   28.8602   66.4968    9.8350 H   0  0  0  0  0  0  0  0  0  0  0  0
   29.6598   65.0900   13.2124 H   0  0  0  0  0  0  0  0  0  0  0  0
   28.5736   65.0062   11.8444 H   0  0  0  0  0  0  0  0  0  0  0  0
   30.0475   67.3460   13.1383 H   0  0  0  0  0  0  0  0  0  0  0  0
   29.9024   67.4938   11.3728 H   0  0  0  0  0  0  0  0  0  0  0  0
   27.9128   68.4556   11.8171 H   0  0  0  0  0  0  0  0  0  0  0  0
   27.9243   67.9417   13.5231 H   0  0  0  0  0  0  0  0  0  0  0  0
   27.0729   65.6299   12.6737 H   0  0  0  0  0  0  0  0  0  0  0  0
   25.9371   67.0108   12.6252 H   0  0  0  0  0  0  0  0  0  0  0  0
   27.5407   66.4661   10.0603 H   0  0  0  0  0  0  0  0  0  0  0  0
   25.8662   67.0238   10.3108 H   0  0  0  0  0  0  0  0  0  0  0  0
   26.0600   64.7492    9.2839 H   0  0  0  0  0  0  0  0  0  0  0  0
   26.8563   64.1742   10.7572 H   0  0  0  0  0  0  0  0  0  0  0  0
   24.0220   65.4305   10.7004 H   0  0  0  0  0  0  0  0  0  0  0  0
   24.7753   64.6474   12.1178 H   0  0  0  0  0  0  0  0  0  0  0  0
   23.7645   63.3665    9.5190 H   0  0  0  0  0  0  0  0  0  0  0  0
   24.9507   62.5130   10.5786 H   0  0  0  0  0  0  0  0  0  0  0  0
   23.3334   62.9705   11.2355 H   0  0  0  0  0  0  0  0  0  0  0  0
  1  2  1  0
  3  1  1  0
  3  4  1  0
  5  3  1  0
  5  6  1  0
  7  5  1  0
  7  8  1  0
  9  7  1  0
 10  9  1  0
 11 10  1  0
 12  9  2  0
 12  1  1  0
 13  2  1  0
 14 13  1  0
 15 14  1  0
 16 15  1  0
 17 16  1  0
 18 17  1  0
 19 18  1  0
 20 19  1  0
  1 21  1  1
  2 22  1  0
  3 23  1  6
  4 24  1  0
  5 25  1  1
  6 26  1  0
  7 27  1  6
  8 28  1  0
 10 29  1  0
 10 30  1  0
 11 31  1  0
 12 32  1  0
 13 33  1  0
 13 34  1  0
 14 35  1  0
 14 36  1  0
 15 37  1  0
 15 38  1  0
 16 39  1  0
 16 40  1  0
 17 41  1  0
 17 42  1  0
 18 43  1  0
 18 44  1  0
 19 45  1  0
 19 46  1  0
 20 47  1  0
 20 48  1  0
 20 49  1  0
M  END
