
     RDKit          3D

 27 26  0  0  0  0  0  0  0  0999 V2000
   26.4621   31.3447   92.5379 C   0  0  0  0  0  0  0  0  0  0  0  0
   26.1365   31.4100   93.7516 O   0  0  0  0  0  0  0  0  0  0  0  0
   26.9858   30.1684   92.0289 O   0  0  0  0  0  0  0  0  0  0  0  0
   26.2469   32.5254   91.6394 C   0  0  0  0  0  0  0  0  0  0  0  0
   26.6997   32.2606   90.1929 C   0  0  1  0  0  0  0  0  0  0  0  0
   26.2472   33.3006   89.3633 O   0  0  0  0  0  0  0  0  0  0  0  0
   28.2446   32.1114   90.1054 C   0  0  0  0  0  0  0  0  0  0  0  0
   27.9315   30.5954   88.2043 C   0  0  0  0  0  0  0  0  0  0  0  0
   28.4800   29.7319   90.3792 C   0  0  0  0  0  0  0  0  0  0  0  0
   30.1530   30.9141   89.1273 C   0  0  0  0  0  0  0  0  0  0  0  0
   28.7055   30.8577   89.4421 N   0  0  0  0  0  0  0  0  0  0  0  0
   26.4396   29.5798   91.4114 H   0  0  0  0  0  0  0  0  0  0  0  0
   25.1612   32.7624   91.6426 H   0  0  0  0  0  0  0  0  0  0  0  0
   26.7865   33.4088   92.0469 H   0  0  0  0  0  0  0  0  0  0  0  0
   26.1900   31.3339   89.8667 H   0  0  0  0  0  0  0  0  0  0  0  0
   26.6615   34.1450   89.6830 H   0  0  0  0  0  0  0  0  0  0  0  0
   28.6604   33.0018   89.5794 H   0  0  0  0  0  0  0  0  0  0  0  0
   28.6590   32.1508   91.1386 H   0  0  0  0  0  0  0  0  0  0  0  0
   26.8772   30.3256   88.4382 H   0  0  0  0  0  0  0  0  0  0  0  0
   28.3762   29.7543   87.6262 H   0  0  0  0  0  0  0  0  0  0  0  0
   27.9340   31.4655   87.5140 H   0  0  0  0  0  0  0  0  0  0  0  0
   28.8114   28.7627   89.9421 H   0  0  0  0  0  0  0  0  0  0  0  0
   27.4005   29.6310   90.6329 H   0  0  0  0  0  0  0  0  0  0  0  0
   29.0430   29.8831   91.3279 H   0  0  0  0  0  0  0  0  0  0  0  0
   30.7421   31.2786   89.9983 H   0  0  0  0  0  0  0  0  0  0  0  0
   30.5421   29.9073   88.8545 H   0  0  0  0  0  0  0  0  0  0  0  0
   30.3656   31.5592   88.2495 H   0  0  0  0  0  0  0  0  0  0  0  0
  2  1  2  0
  3  1  1  0
  4  1  1  0
  5  4  1  0
  5  6  1  0
  7  5  1  0
 11  8  1  0
 11 10  1  0
 11  9  1  0
 11  7  1  0
  3 12  1  0
  4 13  1  0
  4 14  1  0
  5 15  1  6
  6 16  1  0
  7 17  1  0
  7 18  1  0
  8 19  1  0
  8 20  1  0
  8 21  1  0
  9 22  1  0
  9 23  1  0
  9 24  1  0
 10 25  1  0
 10 26  1  0
 10 27  1  0
M  CHG  1  11   1
M  END
