
     RDKit          3D

 27 26  0  0  0  0  0  0  0  0999 V2000
   26.6214   31.6275   92.4304 C   0  0  0  0  0  0  0  0  0  0  0  0
   26.3347   32.5074   93.2829 O   0  0  0  0  0  0  0  0  0  0  0  0
   26.6368   30.2928   92.7983 O   0  0  0  0  0  0  0  0  0  0  0  0
   26.9077   32.0223   91.0126 C   0  0  0  0  0  0  0  0  0  0  0  0
   26.9351   30.8179   90.0553 C   0  0  1  0  0  0  0  0  0  0  0  0
   26.9591   31.2765   88.7273 O   0  0  0  0  0  0  0  0  0  0  0  0
   28.1515   29.8949   90.3472 C   0  0  0  0  0  0  0  0  0  0  0  0
   29.6701   30.7597   88.6279 C   0  0  0  0  0  0  0  0  0  0  0  0
   28.0589   29.0586   88.0923 C   0  0  0  0  0  0  0  0  0  0  0  0
   29.9577   28.4943   89.4486 C   0  0  0  0  0  0  0  0  0  0  0  0
   28.9713   29.5590   89.1475 N   0  0  0  0  0  0  0  0  0  0  0  0
   27.0301   30.0019   93.6853 H   0  0  0  0  0  0  0  0  0  0  0  0
   26.1117   32.7264   90.6879 H   0  0  0  0  0  0  0  0  0  0  0  0
   27.8782   32.5640   90.9639 H   0  0  0  0  0  0  0  0  0  0  0  0
   25.9801   30.2774   90.1997 H   0  0  0  0  0  0  0  0  0  0  0  0
   27.7902   31.8066   88.6049 H   0  0  0  0  0  0  0  0  0  0  0  0
   28.7865   30.3764   91.1264 H   0  0  0  0  0  0  0  0  0  0  0  0
   27.7736   28.9528   90.8060 H   0  0  0  0  0  0  0  0  0  0  0  0
   29.8945   31.4806   89.4458 H   0  0  0  0  0  0  0  0  0  0  0  0
   29.0468   31.2883   87.8718 H   0  0  0  0  0  0  0  0  0  0  0  0
   30.6167   30.5031   88.1067 H   0  0  0  0  0  0  0  0  0  0  0  0
   28.6146   28.7835   87.1673 H   0  0  0  0  0  0  0  0  0  0  0  0
   27.3075   29.8311   87.8121 H   0  0  0  0  0  0  0  0  0  0  0  0
   27.5090   28.1534   88.4361 H   0  0  0  0  0  0  0  0  0  0  0  0
   29.4857   27.6497   89.9985 H   0  0  0  0  0  0  0  0  0  0  0  0
   30.3994   28.0826   88.5132 H   0  0  0  0  0  0  0  0  0  0  0  0
   30.8182   28.8752   90.0371 H   0  0  0  0  0  0  0  0  0  0  0  0
  2  1  2  0
  3  1  1  0
  4  1  1  0
  5  4  1  0
  5  6  1  0
  7  5  1  0
 11  8  1  0
 11 10  1  0
 11  9  1  0
 11  7  1  0
  3 12  1  0
  4 13  1  0
  4 14  1  0
  5 15  1  6
  6 16  1  0
  7 17  1  0
  7 18  1  0
  8 19  1  0
  8 20  1  0
  8 21  1  0
  9 22  1  0
  9 23  1  0
  9 24  1  0
 10 25  1  0
 10 26  1  0
 10 27  1  0
M  CHG  1  11   1
M  END
