
     RDKit          3D

 29 28  0  0  0  0  0  0  0  0999 V2000
  -12.4168  -13.6305   11.2782 P   0  0  0  0  0  0  0  0  0  0  0  0
   -9.1361  -17.8127   13.5358 O   0  0  0  0  0  0  0  0  0  0  0  0
   -9.7679  -16.6069   13.4960 N   0  0  0  0  0  0  0  0  0  0  0  0
   -8.9515  -15.3997   13.2655 C   0  0  0  0  0  0  0  0  0  0  0  0
   -7.4560  -15.7588   13.1929 C   0  0  0  0  0  0  0  0  0  0  0  0
   -6.6513  -15.0399   12.0927 C   0  0  0  0  0  0  0  0  0  0  0  0
   -6.9578  -15.6540   10.7018 C   0  0  0  0  0  0  0  0  0  0  0  0
   -7.6661  -16.8605   10.7963 O   0  0  0  0  0  0  0  0  0  0  0  0
  -11.2125  -16.5788   13.5265 C   0  0  0  0  0  0  0  0  0  0  0  0
  -11.8418  -17.6665   13.6134 O   0  0  0  0  0  0  0  0  0  0  0  0
  -11.9895  -15.3277   13.1962 C   0  0  0  0  0  0  0  0  0  0  0  0
  -11.8857  -15.1568   11.8049 O   0  0  0  0  0  0  0  0  0  0  0  0
  -13.8491  -13.7266   10.7842 O   0  0  0  0  0  0  0  0  0  0  0  0
  -11.3917  -13.1822   10.0155 O   0  0  0  0  0  0  0  0  0  0  0  0
  -12.2936  -12.4599   12.4731 O   0  0  0  0  0  0  0  0  0  0  0  0
   -8.9041  -18.0202   12.5945 H   0  0  0  0  0  0  0  0  0  0  0  0
   -9.2641  -14.8388   12.3681 H   0  0  0  0  0  0  0  0  0  0  0  0
   -9.1076  -14.7015   14.1157 H   0  0  0  0  0  0  0  0  0  0  0  0
   -7.3784  -16.8512   12.9949 H   0  0  0  0  0  0  0  0  0  0  0  0
   -6.9789  -15.5764   14.1809 H   0  0  0  0  0  0  0  0  0  0  0  0
   -6.8914  -13.9582   12.0805 H   0  0  0  0  0  0  0  0  0  0  0  0
   -5.5693  -15.1365   12.3289 H   0  0  0  0  0  0  0  0  0  0  0  0
   -6.0036  -15.8458   10.1684 H   0  0  0  0  0  0  0  0  0  0  0  0
   -7.5386  -14.9508   10.0611 H   0  0  0  0  0  0  0  0  0  0  0  0
   -7.8326  -17.0148   11.7629 H   0  0  0  0  0  0  0  0  0  0  0  0
  -11.6164  -14.4632   13.7800 H   0  0  0  0  0  0  0  0  0  0  0  0
  -13.0578  -15.4750   13.4683 H   0  0  0  0  0  0  0  0  0  0  0  0
  -10.8390  -12.4477   10.3838 H   0  0  0  0  0  0  0  0  0  0  0  0
  -12.6194  -11.6266   12.0485 H   0  0  0  0  0  0  0  0  0  0  0  0
  3  2  1  0
  4  3  1  0
  5  4  1  0
  6  5  1  0
  7  6  1  0
  8  7  1  0
  9  3  1  0
 10  9  2  0
 11  9  1  0
 12  1  1  0
 12 11  1  0
 13  1  2  0
 14  1  1  0
 15  1  1  0
  2 16  1  0
  4 17  1  0
  4 18  1  0
  5 19  1  0
  5 20  1  0
  6 21  1  0
  6 22  1  0
  7 23  1  0
  7 24  1  0
  8 25  1  0
 11 26  1  0
 11 27  1  0
 14 28  1  0
 15 29  1  0
M  END
