
     RDKit          3D

 78 82  0  0  0  0  0  0  0  0999 V2000
    7.7850  -16.3682  -16.4068 C   0  0  0  0  0  0  0  0  0  0  0  0
   15.6019  -26.3436  -21.9734 N   0  0  0  0  0  0  0  0  0  0  0  0
    6.0488  -14.1540  -16.2738 O   0  0  0  0  0  0  0  0  0  0  0  0
   14.0354  -24.6071  -19.2946 C   0  0  0  0  0  0  0  0  0  0  0  0
    6.9003  -13.3851  -14.2668 N   0  0  0  0  0  0  0  0  0  0  0  0
   16.7594  -24.6994  -20.8325 O   0  0  0  0  0  0  0  0  0  0  0  0
    8.1333  -16.0897  -14.0185 C   0  0  0  0  0  0  0  0  0  0  0  0
    7.5825  -15.6236  -15.2292 C   0  0  0  0  0  0  0  0  0  0  0  0
   13.5851  -23.8462  -21.5567 C   0  0  0  0  0  0  0  0  0  0  0  0
   14.4018  -24.5487  -20.6536 C   0  0  0  0  0  0  0  0  0  0  0  0
   12.8072  -19.2050  -15.2449 C   0  0  0  0  0  0  0  0  0  0  0  0
   15.6413  -25.1873  -21.1428 C   0  0  0  0  0  0  0  0  0  0  0  0
   10.0680  -19.4526  -15.1502 S   0  0  0  0  0  0  0  0  0  0  0  0
    6.8011  -14.3720  -15.2888 C   0  0  0  0  0  0  0  0  0  0  0  0
   10.6484  -22.4428  -19.2222 S   0  0  0  0  0  0  0  0  0  0  0  0
    9.3339  -20.5727  -15.8304 O   0  0  0  0  0  0  0  0  0  0  0  0
   10.3022  -22.8619  -17.8195 O   0  0  0  0  0  0  0  0  0  0  0  0
   13.4810  -20.5658  -15.2406 C   0  0  0  0  0  0  0  0  0  0  0  0
   12.8608  -21.7099  -14.6945 C   0  0  0  0  0  0  0  0  0  0  0  0
   14.7904  -20.6861  -15.7496 C   0  0  0  0  0  0  0  0  0  0  0  0
    8.5380  -17.5447  -16.3770 C   0  0  0  0  0  0  0  0  0  0  0  0
   12.8683  -23.9811  -18.8568 C   0  0  0  0  0  0  0  0  0  0  0  0
    8.8991  -17.2580  -13.9973 C   0  0  0  0  0  0  0  0  0  0  0  0
   12.4187  -23.2268  -21.1174 C   0  0  0  0  0  0  0  0  0  0  0  0
   12.2394  -17.9260  -18.0439 C   0  0  0  0  0  0  0  0  0  0  0  0
   13.5304  -18.4739  -18.4610 N   0  0  0  0  0  0  0  0  0  0  0  0
   11.4266  -19.0742  -17.4757 C   0  0  1  0  0  0  0  0  0  0  0  0
   11.9697  -20.3143  -18.1742 C   0  0  2  0  0  0  0  0  0  0  0  0
   13.3582  -19.9150  -18.6818 C   0  0  0  0  0  0  0  0  0  0  0  0
    9.1061  -17.9868  -15.1749 C   0  0  0  0  0  0  0  0  0  0  0  0
   12.0600  -23.2940  -19.7682 C   0  0  0  0  0  0  0  0  0  0  0  0
   11.5425  -19.1735  -16.0056 N   0  0  0  0  0  0  0  0  0  0  0  0
   13.5172  -22.9485  -14.7154 C   0  0  0  0  0  0  0  0  0  0  0  0
   15.4488  -21.9223  -15.7519 C   0  0  0  0  0  0  0  0  0  0  0  0
   14.8098  -23.0551  -15.2405 C   0  0  0  0  0  0  0  0  0  0  0  0
   11.0315  -20.7592  -19.2294 N   0  0  0  0  0  0  0  0  0  0  0  0
   10.8033  -20.0261  -20.4899 C   0  0  0  0  0  0  0  0  0  0  0  0
    9.6086  -19.1087  -20.3727 C   0  0  0  0  0  0  0  0  0  0  0  0
    9.4788  -17.9569  -21.1766 C   0  0  0  0  0  0  0  0  0  0  0  0
    8.3367  -17.1567  -21.0733 C   0  0  0  0  0  0  0  0  0  0  0  0
    7.3321  -17.4787  -20.1539 C   0  0  0  0  0  0  0  0  0  0  0  0
    8.6096  -19.3999  -19.4249 C   0  0  0  0  0  0  0  0  0  0  0  0
    7.4711  -18.5943  -19.3229 C   0  0  0  0  0  0  0  0  0  0  0  0
    9.5158  -22.7228  -20.1679 O   0  0  0  0  0  0  0  0  0  0  0  0
   10.3539  -19.8166  -13.7224 O   0  0  0  0  0  0  0  0  0  0  0  0
    7.3714  -16.0386  -17.3519 H   0  0  0  0  0  0  0  0  0  0  0  0
   16.4919  -26.8176  -22.2448 H   0  0  0  0  0  0  0  0  0  0  0  0
   14.7171  -26.6823  -22.4095 H   0  0  0  0  0  0  0  0  0  0  0  0
   14.6600  -25.0983  -18.5615 H   0  0  0  0  0  0  0  0  0  0  0  0
    7.7303  -13.3176  -13.6390 H   0  0  0  0  0  0  0  0  0  0  0  0
    6.1755  -12.6365  -14.1977 H   0  0  0  0  0  0  0  0  0  0  0  0
    7.9664  -15.5705  -13.0852 H   0  0  0  0  0  0  0  0  0  0  0  0
   13.8441  -23.7832  -22.6065 H   0  0  0  0  0  0  0  0  0  0  0  0
   13.4967  -18.4413  -15.6601 H   0  0  0  0  0  0  0  0  0  0  0  0
   12.6320  -18.8945  -14.1939 H   0  0  0  0  0  0  0  0  0  0  0  0
   11.8677  -21.6609  -14.2771 H   0  0  0  0  0  0  0  0  0  0  0  0
   15.3023  -19.8221  -16.1547 H   0  0  0  0  0  0  0  0  0  0  0  0
    8.6871  -18.1069  -17.2904 H   0  0  0  0  0  0  0  0  0  0  0  0
   12.6133  -24.0146  -17.8055 H   0  0  0  0  0  0  0  0  0  0  0  0
    9.3258  -17.5932  -13.0619 H   0  0  0  0  0  0  0  0  0  0  0  0
   11.8022  -22.6959  -21.8298 H   0  0  0  0  0  0  0  0  0  0  0  0
   12.3863  -17.1148  -17.2995 H   0  0  0  0  0  0  0  0  0  0  0  0
   11.7090  -17.4918  -18.9223 H   0  0  0  0  0  0  0  0  0  0  0  0
   13.8169  -18.0205  -19.3604 H   0  0  0  0  0  0  0  0  0  0  0  0
   10.3642  -18.8965  -17.7357 H   0  0  0  0  0  0  0  0  0  0  0  0
   12.0918  -21.1308  -17.4393 H   0  0  0  0  0  0  0  0  0  0  0  0
   14.1395  -20.4552  -18.1091 H   0  0  0  0  0  0  0  0  0  0  0  0
   13.5132  -20.1876  -19.7479 H   0  0  0  0  0  0  0  0  0  0  0  0
   13.0246  -23.8257  -14.3162 H   0  0  0  0  0  0  0  0  0  0  0  0
   16.4503  -22.0017  -16.1545 H   0  0  0  0  0  0  0  0  0  0  0  0
   15.3139  -24.0128  -15.2497 H   0  0  0  0  0  0  0  0  0  0  0  0
   10.6227  -20.7226  -21.3333 H   0  0  0  0  0  0  0  0  0  0  0  0
   11.6977  -19.4301  -20.7600 H   0  0  0  0  0  0  0  0  0  0  0  0
   10.2412  -17.6860  -21.8945 H   0  0  0  0  0  0  0  0  0  0  0  0
    8.2323  -16.2802  -21.6993 H   0  0  0  0  0  0  0  0  0  0  0  0
    6.4502  -16.8557  -20.0785 H   0  0  0  0  0  0  0  0  0  0  0  0
    8.7009  -20.2657  -18.7806 H   0  0  0  0  0  0  0  0  0  0  0  0
    6.6983  -18.8351  -18.6043 H   0  0  0  0  0  0  0  0  0  0  0  0
  8  7  1  0
  8  1  2  0
 10  9  1  0
 10  4  2  0
 12 10  1  0
 12  6  2  0
 12  2  1  0
 14  8  1  0
 14  5  1  0
 14  3  2  0
 16 13  2  0
 17 15  2  0
 18 11  1  0
 19 18  2  0
 20 18  1  0
 21  1  1  0
 22  4  1  0
 23  7  2  0
 24  9  2  0
 26 25  1  0
 27 25  1  0
 28 27  1  0
 29 28  1  0
 29 26  1  0
 30 23  1  0
 30 21  2  0
 30 13  1  0
 31 24  1  0
 31 22  2  0
 31 15  1  0
 13 32  1  0
 27 32  1  0
 32 11  1  0
 33 19  1  0
 34 20  2  0
 35 33  2  0
 35 34  1  0
 15 36  1  0
 28 36  1  0
 37 36  1  0
 38 37  1  0
 39 38  2  0
 40 39  1  0
 41 40  2  0
 42 38  1  0
 43 42  2  0
 43 41  1  0
 44 15  2  0
 45 13  2  0
  1 46  1  0
  2 47  1  0
  2 48  1  0
  4 49  1  0
  5 50  1  0
  5 51  1  0
  7 52  1  0
  9 53  1  0
 11 54  1  0
 11 55  1  0
 19 56  1  0
 20 57  1  0
 21 58  1  0
 22 59  1  0
 23 60  1  0
 24 61  1  0
 25 62  1  0
 25 63  1  0
 26 64  1  0
 27 65  1  1
 28 66  1  1
 29 67  1  0
 29 68  1  0
 33 69  1  0
 34 70  1  0
 35 71  1  0
 37 72  1  0
 37 73  1  0
 39 74  1  0
 40 75  1  0
 41 76  1  0
 42 77  1  0
 43 78  1  0
M  END
