
     RDKit          3D

 34 36  0  0  0  0  0  0  0  0999 V2000
   45.0067   33.0436   32.6108 C   0  0  0  0  0  0  0  0  0  0  0  0
   46.0748   32.5121   31.8768 C   0  0  0  0  0  0  0  0  0  0  0  0
   45.9650   32.4090   30.4826 C   0  0  0  0  0  0  0  0  0  0  0  0
   44.7896   32.8422   29.8323 C   0  0  0  0  0  0  0  0  0  0  0  0
   43.7379   33.3722   30.5703 C   0  0  0  0  0  0  0  0  0  0  0  0
   43.8430   33.4713   31.9590 C   0  0  0  0  0  0  0  0  0  0  0  0
   47.0232   31.8146   29.6435 C   0  0  0  0  0  0  0  0  0  0  0  0
   46.5854   31.2416   28.3183 C   0  0  1  0  0  0  0  0  0  0  0  0
   45.8113   32.3841   27.6525 C   0  0  2  0  0  0  0  0  0  0  0  0
   44.6720   32.7244   28.4399 O   0  0  0  0  0  0  0  0  0  0  0  0
   48.2402   31.9197   29.9548 O   0  0  0  0  0  0  0  0  0  0  0  0
   45.4453   32.1540   26.2155 C   0  0  0  0  0  0  0  0  0  0  0  0
   45.9137   31.0884   25.4253 C   0  0  0  0  0  0  0  0  0  0  0  0
   45.4935   30.9891   24.0860 C   0  0  0  0  0  0  0  0  0  0  0  0
   44.6165   31.9470   23.5409 C   0  0  0  0  0  0  0  0  0  0  0  0
   44.1540   32.9966   24.3516 C   0  0  0  0  0  0  0  0  0  0  0  0
   44.5675   33.0817   25.6616 C   0  0  0  0  0  0  0  0  0  0  0  0
   43.2828   33.9868   23.9088 O   0  0  0  0  0  0  0  0  0  0  0  0
   44.2233   31.8301   22.2097 O   0  0  0  0  0  0  0  0  0  0  0  0
   47.6744   30.8150   27.5371 O   0  0  0  0  0  0  0  0  0  0  0  0
   42.7906   33.9937   32.6984 O   0  0  0  0  0  0  0  0  0  0  0  0
   47.2244   32.0704   32.5282 O   0  0  0  0  0  0  0  0  0  0  0  0
   45.0763   33.1231   33.6885 H   0  0  0  0  0  0  0  0  0  0  0  0
   42.8379   33.7002   30.0654 H   0  0  0  0  0  0  0  0  0  0  0  0
   45.8913   30.3868   28.4942 H   0  0  0  0  0  0  0  0  0  0  0  0
   46.4849   33.2739   27.7036 H   0  0  0  0  0  0  0  0  0  0  0  0
   46.5905   30.3521   25.8394 H   0  0  0  0  0  0  0  0  0  0  0  0
   45.8524   30.1732   23.4718 H   0  0  0  0  0  0  0  0  0  0  0  0
   44.1849   33.9092   26.2487 H   0  0  0  0  0  0  0  0  0  0  0  0
   42.4617   34.2888   24.4125 H   0  0  0  0  0  0  0  0  0  0  0  0
   43.3731   32.2189   21.8288 H   0  0  0  0  0  0  0  0  0  0  0  0
   47.3071   30.5787   26.6455 H   0  0  0  0  0  0  0  0  0  0  0  0
   41.9356   34.3112   32.2565 H   0  0  0  0  0  0  0  0  0  0  0  0
   47.4032   32.2952   33.5000 H   0  0  0  0  0  0  0  0  0  0  0  0
  2  1  2  0
  3  2  1  0
  4  3  2  0
  5  4  1  0
  6  5  2  0
  6  1  1  0
  7  3  1  0
  8  7  1  0
  9  8  1  0
 10  9  1  0
 10  4  1  0
 11  7  2  0
  9 12  1  0
 13 12  2  0
 14 13  1  0
 15 14  2  0
 16 15  1  0
 17 12  1  0
 17 16  2  0
 18 16  1  0
 19 15  1  0
  8 20  1  0
 21  6  1  0
 22  2  1  0
  1 23  1  0
  5 24  1  0
  8 25  1  1
  9 26  1  6
 13 27  1  0
 14 28  1  0
 17 29  1  0
 18 30  1  0
 19 31  1  0
 20 32  1  0
 21 33  1  0
 22 34  1  0
M  END
