
     RDKit          3D

 34 36  0  0  0  0  0  0  0  0999 V2000
   44.2273   33.4041   33.5539 C   0  0  0  0  0  0  0  0  0  0  0  0
   45.3008   32.7324   32.9554 C   0  0  0  0  0  0  0  0  0  0  0  0
   45.2912   32.5219   31.5691 C   0  0  0  0  0  0  0  0  0  0  0  0
   44.2101   32.9885   30.7908 C   0  0  0  0  0  0  0  0  0  0  0  0
   43.1524   33.6579   31.3948 C   0  0  0  0  0  0  0  0  0  0  0  0
   43.1575   33.8642   32.7756 C   0  0  0  0  0  0  0  0  0  0  0  0
   46.3579   31.7797   30.8701 C   0  0  0  0  0  0  0  0  0  0  0  0
   45.9777   31.1333   29.5609 C   0  0  1  0  0  0  0  0  0  0  0  0
   45.3558   32.2724   28.7463 C   0  0  2  0  0  0  0  0  0  0  0  0
   44.1913   32.7641   29.4067 O   0  0  0  0  0  0  0  0  0  0  0  0
   47.5516   31.8163   31.2735 O   0  0  0  0  0  0  0  0  0  0  0  0
   45.0843   31.9518   27.3058 C   0  0  0  0  0  0  0  0  0  0  0  0
   43.9454   31.2757   26.8313 C   0  0  0  0  0  0  0  0  0  0  0  0
   43.8136   31.0356   25.4512 C   0  0  0  0  0  0  0  0  0  0  0  0
   44.8115   31.4639   24.5543 C   0  0  0  0  0  0  0  0  0  0  0  0
   45.9351   32.1458   25.0496 C   0  0  0  0  0  0  0  0  0  0  0  0
   46.0518   32.3797   26.4009 C   0  0  0  0  0  0  0  0  0  0  0  0
   46.9698   32.6134   24.2458 O   0  0  0  0  0  0  0  0  0  0  0  0
   44.6603   31.2055   23.1939 O   0  0  0  0  0  0  0  0  0  0  0  0
   47.0845   30.5602   28.9091 O   0  0  0  0  0  0  0  0  0  0  0  0
   42.0983   34.5263   33.3816 O   0  0  0  0  0  0  0  0  0  0  0  0
   46.3556   32.2594   33.7332 O   0  0  0  0  0  0  0  0  0  0  0  0
   44.2195   33.5679   34.6243 H   0  0  0  0  0  0  0  0  0  0  0  0
   42.3248   34.0109   30.7923 H   0  0  0  0  0  0  0  0  0  0  0  0
   45.2031   30.3523   29.7433 H   0  0  0  0  0  0  0  0  0  0  0  0
   46.0954   33.1088   28.7851 H   0  0  0  0  0  0  0  0  0  0  0  0
   43.1779   30.9418   27.5176 H   0  0  0  0  0  0  0  0  0  0  0  0
   42.9410   30.5134   25.0799 H   0  0  0  0  0  0  0  0  0  0  0  0
   46.9365   32.9091   26.7370 H   0  0  0  0  0  0  0  0  0  0  0  0
   47.0023   32.5087   23.2422 H   0  0  0  0  0  0  0  0  0  0  0  0
   44.1093   30.4498   22.8136 H   0  0  0  0  0  0  0  0  0  0  0  0
   47.8340   30.5738   29.5601 H   0  0  0  0  0  0  0  0  0  0  0  0
   41.7224   34.2249   34.2733 H   0  0  0  0  0  0  0  0  0  0  0  0
   47.2948   32.1796   33.3614 H   0  0  0  0  0  0  0  0  0  0  0  0
  2  1  2  0
  3  2  1  0
  4  3  2  0
  5  4  1  0
  6  5  2  0
  6  1  1  0
  7  3  1  0
  8  7  1  0
  9  8  1  0
 10  9  1  0
 10  4  1  0
 11  7  2  0
  9 12  1  0
 13 12  2  0
 14 13  1  0
 15 14  2  0
 16 15  1  0
 17 12  1  0
 17 16  2  0
 18 16  1  0
 19 15  1  0
  8 20  1  0
 21  6  1  0
 22  2  1  0
  1 23  1  0
  5 24  1  0
  8 25  1  1
  9 26  1  6
 13 27  1  0
 14 28  1  0
 17 29  1  0
 18 30  1  0
 19 31  1  0
 20 32  1  0
 21 33  1  0
 22 34  1  0
M  END
