
     RDKit          3D

 30 31  0  0  0  0  0  0  0  0999 V2000
   11.2084    2.1215   32.8248 N   0  0  0  0  0  0  0  0  0  0  0  0
   11.3140    1.7036   31.5359 C   0  0  0  0  0  0  0  0  0  0  0  0
   12.6022    1.5543   30.9456 N   0  0  0  0  0  0  0  0  0  0  0  0
   10.1871    1.4297   30.8149 N   0  0  0  0  0  0  0  0  0  0  0  0
    8.9455    1.5739   31.3668 C   0  0  0  0  0  0  0  0  0  0  0  0
    8.8255    2.0098   32.6939 C   0  0  0  0  0  0  0  0  0  0  0  0
    7.9163    1.3168   30.6825 O   0  0  0  0  0  0  0  0  0  0  0  0
    7.5456    2.2202   33.3074 N   0  0  0  0  0  0  0  0  0  0  0  0
    7.3976    2.6228   34.5451 C   0  0  0  0  0  0  0  0  0  0  0  0
    8.6084    2.7772   35.4669 C   0  0  0  0  0  0  0  0  0  0  0  0
    9.9923    2.2751   33.4118 C   0  0  0  0  0  0  0  0  0  0  0  0
    9.8942    2.7149   34.7635 N   0  0  0  0  0  0  0  0  0  0  0  0
    5.9795    2.8122   35.0808 C   0  0  1  0  0  0  0  0  0  0  0  0
    5.4660    1.5588   35.4569 O   0  0  0  0  0  0  0  0  0  0  0  0
    5.8915    3.7980   36.2764 C   0  0  1  0  0  0  0  0  0  0  0  0
    6.3380    5.0652   35.8617 O   0  0  0  0  0  0  0  0  0  0  0  0
    4.4584    3.9220   36.8119 C   0  0  0  0  0  0  0  0  0  0  0  0
   13.3291    2.2957   31.0559 H   0  0  0  0  0  0  0  0  0  0  0  0
   12.8334    0.6982   30.3943 H   0  0  0  0  0  0  0  0  0  0  0  0
   10.2734    1.1065   29.8245 H   0  0  0  0  0  0  0  0  0  0  0  0
    8.5782    1.9740   36.2328 H   0  0  0  0  0  0  0  0  0  0  0  0
    8.5630    3.7554   35.9863 H   0  0  0  0  0  0  0  0  0  0  0  0
   10.7690    2.9085   35.3011 H   0  0  0  0  0  0  0  0  0  0  0  0
    5.3692    3.2413   34.2484 H   0  0  0  0  0  0  0  0  0  0  0  0
    4.4760    1.6344   35.4699 H   0  0  0  0  0  0  0  0  0  0  0  0
    6.5236    3.4166   37.1118 H   0  0  0  0  0  0  0  0  0  0  0  0
    5.9151    5.7311   36.4647 H   0  0  0  0  0  0  0  0  0  0  0  0
    4.4020    3.5698   37.8634 H   0  0  0  0  0  0  0  0  0  0  0  0
    4.1371    4.9850   36.7890 H   0  0  0  0  0  0  0  0  0  0  0  0
    3.7589    3.3255   36.1880 H   0  0  0  0  0  0  0  0  0  0  0  0
  2  1  2  0
  3  2  1  0
  4  2  1  0
  5  4  1  0
  6  5  1  0
  7  5  2  0
  8  6  1  0
  9  8  2  0
 10  9  1  0
 11  6  2  0
 11  1  1  0
 12 11  1  0
 12 10  1  0
 13  9  1  0
 13 14  1  0
 15 13  1  0
 16 15  1  0
 15 17  1  0
  3 18  1  0
  3 19  1  0
  4 20  1  0
 10 21  1  0
 10 22  1  0
 12 23  1  0
 13 24  1  6
 14 25  1  0
 15 26  1  1
 16 27  1  0
 17 28  1  0
 17 29  1  0
 17 30  1  0
M  END
