
     RDKit          3D

 79 81  0  0  0  0  0  0  0  0999 V2000
    9.6372   -2.1111   18.3401 N   0  0  0  0  0  0  0  0  0  0  0  0
   11.8989   -1.5594   19.4326 C   0  0  0  0  0  0  0  0  0  0  0  0
   10.5866    0.0310   18.2947 O   0  0  0  0  0  0  0  0  0  0  0  0
   12.2564   -0.8763   20.6074 C   0  0  0  0  0  0  0  0  0  0  0  0
   14.7928   -4.2397   17.7116 N   0  0  0  0  0  0  0  0  0  0  0  0
   15.4042   -4.7856   19.9050 O   0  0  0  0  0  0  0  0  0  0  0  0
   13.3992   -1.2544   21.3376 C   0  0  0  0  0  0  0  0  0  0  0  0
   19.1001   -4.7983   17.0544 N   0  0  0  0  0  0  0  0  0  0  0  0
   17.3088   -5.9796   15.6338 O   0  0  0  0  0  0  0  0  0  0  0  0
   14.2166   -2.2941   20.8565 C   0  0  0  0  0  0  0  0  0  0  0  0
   13.8798   -2.9696   19.6694 C   0  0  0  0  0  0  0  0  0  0  0  0
   12.7148   -2.5990   18.9699 C   0  0  0  0  0  0  0  0  0  0  0  0
   10.6867   -1.1667   18.6712 C   0  0  0  0  0  0  0  0  0  0  0  0
   13.7690   -0.5187   22.5960 C   0  0  0  0  0  0  0  0  0  0  0  0
   14.7317   -4.0508   19.1310 C   0  0  0  0  0  0  0  0  0  0  0  0
    8.6563   -1.7765   17.2859 C   0  0  0  0  0  0  0  0  0  0  0  0
    9.4273   -3.3273   19.1500 C   0  0  0  0  0  0  0  0  0  0  0  0
    9.2968   -1.6974   15.8868 C   0  0  0  0  0  0  0  0  0  0  0  0
    9.6148   -3.0755   15.3163 C   0  0  0  0  0  0  0  0  0  0  0  0
    7.9743   -3.4610   19.6398 C   0  0  0  0  0  0  0  0  0  0  0  0
    7.5969   -2.3927   20.6637 C   0  0  0  0  0  0  0  0  0  0  0  0
   15.4284   -5.3795   17.0564 C   0  0  2  0  0  0  0  0  0  0  0  0
   16.7316   -4.9223   16.3588 C   0  0  1  0  0  0  0  0  0  0  0  0
   14.4029   -6.0101   16.0904 C   0  0  0  0  0  0  0  0  0  0  0  0
   17.7318   -4.4019   17.4057 C   0  0  0  0  0  0  0  0  0  0  0  0
   20.0133   -4.5787   18.1841 C   0  0  0  0  0  0  0  0  0  0  0  0
   20.3026   -5.8844   18.8937 C   0  0  0  0  0  0  0  0  0  0  0  0
   20.9129   -6.9532   18.2122 C   0  0  0  0  0  0  0  0  0  0  0  0
   21.2078   -8.1441   18.8894 C   0  0  0  0  0  0  0  0  0  0  0  0
   20.9000   -8.2772   20.2491 C   0  0  0  0  0  0  0  0  0  0  0  0
   20.2918   -7.2205   20.9368 C   0  0  0  0  0  0  0  0  0  0  0  0
   19.9871   -6.0323   20.2596 C   0  0  0  0  0  0  0  0  0  0  0  0
   12.1186   -7.6373   18.6992 C   0  0  0  0  0  0  0  0  0  0  0  0
   13.2576   -7.2640   17.9830 C   0  0  0  0  0  0  0  0  0  0  0  0
   13.1546   -6.4430   16.8404 C   0  0  0  0  0  0  0  0  0  0  0  0
   11.8768   -6.0472   16.4058 C   0  0  0  0  0  0  0  0  0  0  0  0
   10.7335   -6.4471   17.1140 C   0  0  0  0  0  0  0  0  0  0  0  0
   10.8548   -7.2332   18.2642 C   0  0  0  0  0  0  0  0  0  0  0  0
   12.2447   -8.4036   19.8086 F   0  0  0  0  0  0  0  0  0  0  0  0
    9.5059   -6.0768   16.6833 F   0  0  0  0  0  0  0  0  0  0  0  0
   19.8376   -7.4133   22.9921 I   0  0  0  0  0  0  0  0  0  0  0  0
   11.6341   -0.0637   20.9638 H   0  0  0  0  0  0  0  0  0  0  0  0
   14.4503   -3.4718   17.0901 H   0  0  0  0  0  0  0  0  0  0  0  0
   19.4190   -4.1920   16.2623 H   0  0  0  0  0  0  0  0  0  0  0  0
   17.5188   -6.7088   16.2751 H   0  0  0  0  0  0  0  0  0  0  0  0
   15.1134   -2.5695   21.3987 H   0  0  0  0  0  0  0  0  0  0  0  0
   12.4190   -3.1304   18.0729 H   0  0  0  0  0  0  0  0  0  0  0  0
   12.8582   -0.1583   23.1199 H   0  0  0  0  0  0  0  0  0  0  0  0
   14.3240   -1.1845   23.2907 H   0  0  0  0  0  0  0  0  0  0  0  0
   14.4084    0.3516   22.3399 H   0  0  0  0  0  0  0  0  0  0  0  0
    7.8288   -2.5191   17.2623 H   0  0  0  0  0  0  0  0  0  0  0  0
    8.1917   -0.7956   17.5254 H   0  0  0  0  0  0  0  0  0  0  0  0
   10.1090   -3.3689   20.0232 H   0  0  0  0  0  0  0  0  0  0  0  0
    9.6698   -4.2146   18.5293 H   0  0  0  0  0  0  0  0  0  0  0  0
    8.5837   -1.1933   15.1993 H   0  0  0  0  0  0  0  0  0  0  0  0
   10.2233   -1.0858   15.9142 H   0  0  0  0  0  0  0  0  0  0  0  0
    8.6785   -3.6621   15.2080 H   0  0  0  0  0  0  0  0  0  0  0  0
   10.3078   -3.6252   15.9880 H   0  0  0  0  0  0  0  0  0  0  0  0
   10.0807   -2.9600   14.3174 H   0  0  0  0  0  0  0  0  0  0  0  0
    7.2710   -3.4111   18.7820 H   0  0  0  0  0  0  0  0  0  0  0  0
    7.8525   -4.4591   20.1136 H   0  0  0  0  0  0  0  0  0  0  0  0
    6.5616   -2.5704   21.0233 H   0  0  0  0  0  0  0  0  0  0  0  0
    8.2884   -2.4296   21.5323 H   0  0  0  0  0  0  0  0  0  0  0  0
    7.6431   -1.3837   20.2024 H   0  0  0  0  0  0  0  0  0  0  0  0
   15.7193   -6.1384   17.8120 H   0  0  0  0  0  0  0  0  0  0  0  0
   16.4961   -4.1009   15.6469 H   0  0  0  0  0  0  0  0  0  0  0  0
   14.8457   -6.9055   15.6042 H   0  0  0  0  0  0  0  0  0  0  0  0
   14.1490   -5.2798   15.2907 H   0  0  0  0  0  0  0  0  0  0  0  0
   17.4431   -4.8097   18.3998 H   0  0  0  0  0  0  0  0  0  0  0  0
   17.6737   -3.2916   17.4640 H   0  0  0  0  0  0  0  0  0  0  0  0
   19.5913   -3.8214   18.8837 H   0  0  0  0  0  0  0  0  0  0  0  0
   20.9752   -4.1760   17.7998 H   0  0  0  0  0  0  0  0  0  0  0  0
   21.1658   -6.8633   17.1632 H   0  0  0  0  0  0  0  0  0  0  0  0
   21.6795   -8.9624   18.3609 H   0  0  0  0  0  0  0  0  0  0  0  0
   21.1359   -9.1982   20.7662 H   0  0  0  0  0  0  0  0  0  0  0  0
   19.5148   -5.2215   20.8003 H   0  0  0  0  0  0  0  0  0  0  0  0
   14.2144   -7.6370   18.3196 H   0  0  0  0  0  0  0  0  0  0  0  0
   11.7682   -5.4431   15.5146 H   0  0  0  0  0  0  0  0  0  0  0  0
    9.9708   -7.5317   18.8130 H   0  0  0  0  0  0  0  0  0  0  0  0
  4  2  2  0
  7  4  1  0
 10  7  2  0
 11 10  1  0
 12 11  2  0
 12  2  1  0
 13  3  2  0
 13  1  1  0
 13  2  1  0
 14  7  1  0
 15 11  1  0
 15  6  2  0
 15  5  1  0
 16  1  1  0
 17  1  1  0
 18 16  1  0
 19 18  1  0
 20 17  1  0
 21 20  1  0
 22  5  1  0
 23 22  1  0
 23  9  1  0
 22 24  1  0
 25 23  1  0
 25  8  1  0
 26  8  1  0
 27 26  1  0
 28 27  2  0
 29 28  1  0
 30 29  2  0
 31 30  1  0
 32 31  2  0
 32 27  1  0
 34 33  2  0
 35 24  1  0
 35 34  1  0
 36 35  2  0
 37 36  1  0
 38 37  2  0
 38 33  1  0
 39 33  1  0
 40 37  1  0
 41 31  1  0
  4 42  1  0
  5 43  1  0
  8 44  1  0
  9 45  1  0
 10 46  1  0
 12 47  1  0
 14 48  1  0
 14 49  1  0
 14 50  1  0
 16 51  1  0
 16 52  1  0
 17 53  1  0
 17 54  1  0
 18 55  1  0
 18 56  1  0
 19 57  1  0
 19 58  1  0
 19 59  1  0
 20 60  1  0
 20 61  1  0
 21 62  1  0
 21 63  1  0
 21 64  1  0
 22 65  1  1
 23 66  1  6
 24 67  1  0
 24 68  1  0
 25 69  1  0
 25 70  1  0
 26 71  1  0
 26 72  1  0
 28 73  1  0
 29 74  1  0
 30 75  1  0
 32 76  1  0
 34 77  1  0
 36 78  1  0
 38 79  1  0
M  END
