
     RDKit          3D

 29 30  0  0  0  0  0  0  0  0999 V2000
  -24.8879  -35.0052  -40.0202 C   0  0  0  0  0  0  0  0  0  0  0  0
  -26.2525  -34.8779  -39.7321 O   0  0  0  0  0  0  0  0  0  0  0  0
  -24.5887  -36.4805  -40.2270 C   0  0  1  0  0  0  0  0  0  0  0  0
  -25.2397  -36.9459  -41.3825 O   0  0  0  0  0  0  0  0  0  0  0  0
  -23.1136  -36.7828  -40.4105 C   0  0  1  0  0  0  0  0  0  0  0  0
  -22.3995  -36.7699  -39.1913 O   0  0  0  0  0  0  0  0  0  0  0  0
  -23.1802  -38.1451  -41.0732 C   0  0  1  0  0  0  0  0  0  0  0  0
  -23.1567  -39.1551  -40.0960 O   0  0  0  0  0  0  0  0  0  0  0  0
  -24.5613  -38.1232  -41.7593 C   0  0  2  0  0  0  0  0  0  0  0  0
  -24.4448  -38.2061  -43.2298 N   0  0  0  0  0  0  0  0  0  0  0  0
  -23.9679  -37.1325  -43.9386 C   0  0  0  0  0  0  0  0  0  0  0  0
  -23.6243  -36.0733  -43.3451 O   0  0  0  0  0  0  0  0  0  0  0  0
  -23.8581  -37.2001  -45.2934 N   0  0  0  0  0  0  0  0  0  0  0  0
  -24.2158  -38.3179  -45.9782 C   0  0  0  0  0  0  0  0  0  0  0  0
  -24.0978  -38.3487  -47.2334 O   0  0  0  0  0  0  0  0  0  0  0  0
  -24.7173  -39.4211  -45.2841 C   0  0  0  0  0  0  0  0  0  0  0  0
  -24.8335  -39.3391  -43.8966 C   0  0  0  0  0  0  0  0  0  0  0  0
  -24.2894  -34.6173  -39.1656 H   0  0  0  0  0  0  0  0  0  0  0  0
  -24.6333  -34.4307  -40.9394 H   0  0  0  0  0  0  0  0  0  0  0  0
  -26.3991  -33.9200  -39.5181 H   0  0  0  0  0  0  0  0  0  0  0  0
  -24.9889  -37.0402  -39.3475 H   0  0  0  0  0  0  0  0  0  0  0  0
  -22.6557  -36.0511  -41.1134 H   0  0  0  0  0  0  0  0  0  0  0  0
  -22.1039  -37.6930  -38.9783 H   0  0  0  0  0  0  0  0  0  0  0  0
  -22.3389  -38.2709  -41.7945 H   0  0  0  0  0  0  0  0  0  0  0  0
  -24.0814  -39.2226  -39.7411 H   0  0  0  0  0  0  0  0  0  0  0  0
  -25.1809  -38.9686  -41.3814 H   0  0  0  0  0  0  0  0  0  0  0  0
  -23.4889  -36.3746  -45.8192 H   0  0  0  0  0  0  0  0  0  0  0  0
  -25.0178  -40.3199  -45.8082 H   0  0  0  0  0  0  0  0  0  0  0  0
  -25.2371  -40.1877  -43.3575 H   0  0  0  0  0  0  0  0  0  0  0  0
  2  1  1  0
  3  1  1  0
  4  3  1  0
  5  3  1  0
  5  6  1  0
  7  5  1  0
  7  8  1  0
  9  7  1  0
  9  4  1  0
  9 10  1  0
 11 10  1  0
 12 11  2  0
 13 11  1  0
 14 13  1  0
 15 14  2  0
 16 14  1  0
 17 16  2  0
 17 10  1  0
  1 18  1  0
  1 19  1  0
  2 20  1  0
  3 21  1  1
  5 22  1  6
  6 23  1  0
  7 24  1  6
  8 25  1  0
  9 26  1  1
 13 27  1  0
 16 28  1  0
 17 29  1  0
M  END
