
     RDKit          3D

 18 17  0  0  0  0  0  0  0  0999 V2000
   58.1239    8.1113   27.5298 P   0  0  0  0  0  0  0  0  0  0  0  0
   57.8344    7.0898   28.9790 C   0  0  0  0  0  0  0  0  0  0  0  0
   58.6813    7.5998   30.0430 N   0  0  0  0  0  0  0  0  0  0  0  0
   58.0819    9.5754   27.9025 O   0  0  0  0  0  0  0  0  0  0  0  0
   59.6300    8.5986   29.5726 C   0  0  0  0  0  0  0  0  0  0  0  0
   56.9170    7.7541   26.4274 O   0  0  0  0  0  0  0  0  0  0  0  0
   60.6492    8.8251   30.6412 C   0  0  0  0  0  0  0  0  0  0  0  0
   59.6262    7.7457   26.8811 O   0  0  0  0  0  0  0  0  0  0  0  0
   60.5649    8.2407   31.7584 O   0  0  0  0  0  0  0  0  0  0  0  0
   61.6874    9.6992   30.3963 O   0  0  0  0  0  0  0  0  0  0  0  0
   58.0913    6.0359   28.7374 H   0  0  0  0  0  0  0  0  0  0  0  0
   56.7627    7.1577   29.2703 H   0  0  0  0  0  0  0  0  0  0  0  0
   59.2484    6.7954   30.4064 H   0  0  0  0  0  0  0  0  0  0  0  0
   60.1356    8.2528   28.6433 H   0  0  0  0  0  0  0  0  0  0  0  0
   59.1101    9.5611   29.3735 H   0  0  0  0  0  0  0  0  0  0  0  0
   57.3940    7.3954   25.6369 H   0  0  0  0  0  0  0  0  0  0  0  0
   59.7591    6.7831   27.0737 H   0  0  0  0  0  0  0  0  0  0  0  0
   62.6505    9.3881   30.4396 H   0  0  0  0  0  0  0  0  0  0  0  0
  2  1  1  0
  3  2  1  0
  4  1  2  0
  5  3  1  0
  6  1  1  0
  7  5  1  0
  8  1  1  0
  9  7  2  0
 10  7  1  0
  2 11  1  0
  2 12  1  0
  3 13  1  0
  5 14  1  0
  5 15  1  0
  6 16  1  0
  8 17  1  0
 10 18  1  0
M  END
