
     RDKit          3D

 18 17  0  0  0  0  0  0  0  0999 V2000
   88.3274  115.6800    2.1403 P   0  0  0  0  0  0  0  0  0  0  0  0
   89.1598  114.5044    1.2374 O   0  0  0  0  0  0  0  0  0  0  0  0
   89.2866  116.2353    3.1634 O   0  0  0  0  0  0  0  0  0  0  0  0
   87.8247  116.9220    1.1304 O   0  0  0  0  0  0  0  0  0  0  0  0
   86.9886  115.0083    2.9037 O   0  0  0  0  0  0  0  0  0  0  0  0
   88.4651  114.4255   -1.0671 C   0  0  0  0  0  0  0  0  0  0  0  0
   88.8509  115.6146   -1.2639 O   0  0  0  0  0  0  0  0  0  0  0  0
   88.3018  113.8500    0.3231 C   0  0  1  0  0  0  0  0  0  0  0  0
   88.1064  113.6362   -2.1482 O   0  0  0  0  0  0  0  0  0  0  0  0
   88.6604  112.3437    0.3218 C   0  0  0  0  0  0  0  0  0  0  0  0
   88.0549  111.6877    1.4043 O   0  0  0  0  0  0  0  0  0  0  0  0
   88.5555  117.5896    1.1641 H   0  0  0  0  0  0  0  0  0  0  0  0
   87.3472  114.5612    3.7113 H   0  0  0  0  0  0  0  0  0  0  0  0
   87.2211  113.9278    0.5836 H   0  0  0  0  0  0  0  0  0  0  0  0
   88.2645  112.6357   -2.1370 H   0  0  0  0  0  0  0  0  0  0  0  0
   88.3073  111.8512   -0.6108 H   0  0  0  0  0  0  0  0  0  0  0  0
   89.7665  112.2216    0.3710 H   0  0  0  0  0  0  0  0  0  0  0  0
   87.3835  112.3198    1.7718 H   0  0  0  0  0  0  0  0  0  0  0  0
  2  1  1  0
  3  1  2  0
  4  1  1  0
  5  1  1  0
  7  6  2  0
  8  6  1  0
  8  2  1  0
  9  6  1  0
  8 10  1  0
 11 10  1  0
  4 12  1  0
  5 13  1  0
  8 14  1  1
  9 15  1  0
 10 16  1  0
 10 17  1  0
 11 18  1  0
M  END
