
     RDKit          3D

 63 66  0  0  0  0  0  0  0  0999 V2000
   51.5608   -9.5889   48.0938 C   0  0  0  0  0  0  0  0  0  0  0  0
   51.8712   -9.7015   46.7447 C   0  0  0  0  0  0  0  0  0  0  0  0
   53.1227   -7.6266   46.8517 C   0  0  0  0  0  0  0  0  0  0  0  0
   52.0210   -8.4957   48.8249 C   0  0  0  0  0  0  0  0  0  0  0  0
   52.6403   -8.7200   46.1128 C   0  0  0  0  0  0  0  0  0  0  0  0
   52.8101   -7.5231   48.2038 C   0  0  0  0  0  0  0  0  0  0  0  0
   52.3660   -8.2308   52.5297 C   0  0  0  0  0  0  0  0  0  0  0  0
   52.9796   -7.4912   53.5596 C   0  0  0  0  0  0  0  0  0  0  0  0
   52.4100   -7.7808   51.1240 C   0  0  0  0  0  0  0  0  0  0  0  0
   53.2131   -8.1318   54.7950 C   0  0  0  0  0  0  0  0  0  0  0  0
   51.8117   -9.4881   52.8439 C   0  0  0  0  0  0  0  0  0  0  0  0
   54.4662   -5.7933   57.3297 C   0  0  0  0  0  0  0  0  0  0  0  0
   54.9455   -7.0886   57.9635 C   0  0  0  0  0  0  0  0  0  0  0  0
   54.2978   -6.1387   55.8658 C   0  0  0  0  0  0  0  0  0  0  0  0
   54.3085   -8.1880   57.1259 C   0  0  0  0  0  0  0  0  0  0  0  0
   48.8760   -9.9302   53.3009 C   0  0  0  0  0  0  0  0  0  0  0  0
   47.8469  -10.0917   55.5817 C   0  0  0  0  0  0  0  0  0  0  0  0
   54.5045   -6.6050   44.1708 C   0  0  0  0  0  0  0  0  0  0  0  0
   50.0740  -11.2019   55.1888 C   0  0  0  0  0  0  0  0  0  0  0  0
   51.4092  -11.3197   54.4311 C   0  0  0  0  0  0  0  0  0  0  0  0
   49.1675  -10.0001   54.8086 C   0  0  0  0  0  0  0  0  0  0  0  0
   51.7856   -8.4876   50.2275 N   0  0  0  0  0  0  0  0  0  0  0  0
   52.6813   -9.3589   55.0093 N   0  0  0  0  0  0  0  0  0  0  0  0
   53.3382   -6.7658   50.7477 N   0  0  0  0  0  0  0  0  0  0  0  0
   54.0046   -7.5647   55.8482 N   0  0  0  0  0  0  0  0  0  0  0  0
   51.9795  -10.0126   54.0880 N   0  0  0  0  0  0  0  0  0  0  0  0
   52.9120   -8.8594   44.7202 N   0  0  0  0  0  0  0  0  0  0  0  0
   51.1700  -10.1392   51.9762 O   0  0  0  0  0  0  0  0  0  0  0  0
   52.4181   -5.0316   48.9914 O   0  0  0  0  0  0  0  0  0  0  0  0
   54.7779   -5.8248   48.8272 O   0  0  0  0  0  0  0  0  0  0  0  0
   53.2160   -7.9880   42.2679 O   0  0  0  0  0  0  0  0  0  0  0  0
   51.8493   -6.6131   43.7781 O   0  0  0  0  0  0  0  0  0  0  0  0
   53.2838   -6.1356   53.4023 O   0  0  0  0  0  0  0  0  0  0  0  0
   53.3607   -6.1873   49.1522 S   0  0  0  0  0  0  0  0  0  0  0  0
   53.0603   -7.4978   43.6765 S   0  0  0  0  0  0  0  0  0  0  0  0
   50.9753  -10.3621   48.5761 H   0  0  0  0  0  0  0  0  0  0  0  0
   51.5035  -10.5533   46.1859 H   0  0  0  0  0  0  0  0  0  0  0  0
   53.7461   -6.8734   46.3905 H   0  0  0  0  0  0  0  0  0  0  0  0
   53.4853   -5.5023   57.7672 H   0  0  0  0  0  0  0  0  0  0  0  0
   55.2003   -4.9715   57.4740 H   0  0  0  0  0  0  0  0  0  0  0  0
   56.0537   -7.1532   57.8899 H   0  0  0  0  0  0  0  0  0  0  0  0
   54.6402   -7.1563   59.0302 H   0  0  0  0  0  0  0  0  0  0  0  0
   55.2327   -5.9420   55.2975 H   0  0  0  0  0  0  0  0  0  0  0  0
   53.4596   -5.5430   55.4413 H   0  0  0  0  0  0  0  0  0  0  0  0
   55.0101   -9.0390   56.9900 H   0  0  0  0  0  0  0  0  0  0  0  0
   53.3695   -8.5232   57.6178 H   0  0  0  0  0  0  0  0  0  0  0  0
   48.0324  -10.6037   53.0365 H   0  0  0  0  0  0  0  0  0  0  0  0
   49.7406  -10.2573   52.6984 H   0  0  0  0  0  0  0  0  0  0  0  0
   48.6056   -8.8923   53.0118 H   0  0  0  0  0  0  0  0  0  0  0  0
   47.1799   -9.2473   55.3040 H   0  0  0  0  0  0  0  0  0  0  0  0
   48.0346  -10.0308   56.6752 H   0  0  0  0  0  0  0  0  0  0  0  0
   47.3255  -11.0480   55.3599 H   0  0  0  0  0  0  0  0  0  0  0  0
   54.3962   -6.2645   45.2207 H   0  0  0  0  0  0  0  0  0  0  0  0
   54.6395   -5.7233   43.5110 H   0  0  0  0  0  0  0  0  0  0  0  0
   55.3931   -7.2644   44.0898 H   0  0  0  0  0  0  0  0  0  0  0  0
   50.3380  -11.1138   56.2664 H   0  0  0  0  0  0  0  0  0  0  0  0
   49.5061  -12.1525   55.0842 H   0  0  0  0  0  0  0  0  0  0  0  0
   51.2604  -11.9484   53.5264 H   0  0  0  0  0  0  0  0  0  0  0  0
   52.1340  -11.8817   55.0609 H   0  0  0  0  0  0  0  0  0  0  0  0
   49.6407   -9.0458   55.1203 H   0  0  0  0  0  0  0  0  0  0  0  0
   54.2179   -6.6300   51.2924 H   0  0  0  0  0  0  0  0  0  0  0  0
   52.8110   -9.7966   44.2695 H   0  0  0  0  0  0  0  0  0  0  0  0
   53.0812   -5.4435   54.1131 H   0  0  0  0  0  0  0  0  0  0  0  0
  2  1  2  0
  4  1  1  0
  5  3  2  0
  5  2  1  0
  6  4  2  0
  6  3  1  0
  8  7  2  0
  9  7  1  0
 10  8  1  0
 11  7  1  0
 13 12  1  0
 14 12  1  0
 15 13  1  0
 20 19  1  0
 21 17  1  0
 21 16  1  0
 21 19  1  0
 22  4  1  0
 22  9  2  0
 23 10  2  0
 24  9  1  0
 25 10  1  0
 25 15  1  0
 25 14  1  0
 26 11  1  0
 26 23  1  0
 26 20  1  0
 27  5  1  0
 28 11  2  0
 33  8  1  0
 34  6  1  0
 34 24  1  0
 34 30  2  0
 34 29  2  0
 35 31  2  0
 35 32  2  0
 35 27  1  0
 35 18  1  0
  1 36  1  0
  2 37  1  0
  3 38  1  0
 12 39  1  0
 12 40  1  0
 13 41  1  0
 13 42  1  0
 14 43  1  0
 14 44  1  0
 15 45  1  0
 15 46  1  0
 16 47  1  0
 16 48  1  0
 16 49  1  0
 17 50  1  0
 17 51  1  0
 17 52  1  0
 18 53  1  0
 18 54  1  0
 18 55  1  0
 19 56  1  0
 19 57  1  0
 20 58  1  0
 20 59  1  0
 21 60  1  0
 24 61  1  0
 27 62  1  0
 33 63  1  0
M  END
