
     RDKit          3D

 31 33  0  0  0  0  0  0  0  0999 V2000
    6.6319   35.7273   18.9531 C   0  0  0  0  0  0  0  0  0  0  0  0
    7.6530   34.9147   18.3850 C   0  0  0  0  0  0  0  0  0  0  0  0
    7.2335   33.6491   17.8569 C   0  0  0  0  0  0  0  0  0  0  0  0
    5.9405   33.2739   17.9505 N   0  0  0  0  0  0  0  0  0  0  0  0
    5.0050   34.0659   18.5083 C   0  0  0  0  0  0  0  0  0  0  0  0
    5.3448   35.2849   18.9895 N   0  0  0  0  0  0  0  0  0  0  0  0
    8.0938   32.7288   17.2005 N   0  0  0  0  0  0  0  0  0  0  0  0
    6.9371   36.9737   19.5095 C   0  0  0  0  0  0  0  0  0  0  0  0
    8.2509   37.4288   19.5321 C   0  0  0  0  0  0  0  0  0  0  0  0
    9.2754   36.6420   19.0128 C   0  0  0  0  0  0  0  0  0  0  0  0
    9.0053   35.3877   18.4324 C   0  0  0  0  0  0  0  0  0  0  0  0
    3.6623   33.6174   18.5925 N   0  0  0  0  0  0  0  0  0  0  0  0
   10.3780   34.3249   17.9037 S   0  0  0  0  0  0  0  0  0  0  0  0
   11.7288   35.4870   17.7657 C   0  0  0  0  0  0  0  0  0  0  0  0
   13.0455   35.0995   18.0388 C   0  0  0  0  0  0  0  0  0  0  0  0
   14.0731   36.0474   17.9894 C   0  0  0  0  0  0  0  0  0  0  0  0
   13.7749   37.3864   17.7061 C   0  0  0  0  0  0  0  0  0  0  0  0
   12.4573   37.7744   17.4432 C   0  0  0  0  0  0  0  0  0  0  0  0
   11.4322   36.8248   17.4720 C   0  0  0  0  0  0  0  0  0  0  0  0
    8.7380   33.0734   16.4541 H   0  0  0  0  0  0  0  0  0  0  0  0
    8.3851   31.8559   17.6923 H   0  0  0  0  0  0  0  0  0  0  0  0
    6.1533   37.5864   19.9380 H   0  0  0  0  0  0  0  0  0  0  0  0
    8.4805   38.3879   19.9786 H   0  0  0  0  0  0  0  0  0  0  0  0
   10.2834   37.0152   19.1118 H   0  0  0  0  0  0  0  0  0  0  0  0
    3.1529   33.6414   19.5037 H   0  0  0  0  0  0  0  0  0  0  0  0
    3.1696   33.2586   17.7445 H   0  0  0  0  0  0  0  0  0  0  0  0
   13.2726   34.0698   18.2838 H   0  0  0  0  0  0  0  0  0  0  0  0
   15.0941   35.7505   18.1909 H   0  0  0  0  0  0  0  0  0  0  0  0
   14.5684   38.1220   17.6827 H   0  0  0  0  0  0  0  0  0  0  0  0
   12.2311   38.8094   17.2214 H   0  0  0  0  0  0  0  0  0  0  0  0
   10.4117   37.1310   17.2795 H   0  0  0  0  0  0  0  0  0  0  0  0
  2  1  1  0
  3  2  2  0
  4  3  1  0
  5  4  2  0
  6  5  1  0
  6  1  2  0
  7  3  1  0
  8  1  1  0
  9  8  2  0
 10  9  1  0
 11 10  2  0
 11  2  1  0
 12  5  1  0
 13 11  1  0
 14 13  1  0
 15 14  2  0
 16 15  1  0
 17 16  2  0
 18 17  1  0
 19 18  2  0
 19 14  1  0
  7 20  1  0
  7 21  1  0
  8 22  1  0
  9 23  1  0
 10 24  1  0
 12 25  1  0
 12 26  1  0
 15 27  1  0
 16 28  1  0
 17 29  1  0
 18 30  1  0
 19 31  1  0
M  END
