
     RDKit          3D

 31 33  0  0  0  0  0  0  0  0999 V2000
    8.0207   36.4472   19.1651 C   0  0  0  0  0  0  0  0  0  0  0  0
    9.0417   35.6346   18.5969 C   0  0  0  0  0  0  0  0  0  0  0  0
    8.6222   34.3690   18.0689 C   0  0  0  0  0  0  0  0  0  0  0  0
    7.3293   33.9938   18.1625 N   0  0  0  0  0  0  0  0  0  0  0  0
    6.3937   34.7858   18.7203 C   0  0  0  0  0  0  0  0  0  0  0  0
    6.7335   36.0048   19.2015 N   0  0  0  0  0  0  0  0  0  0  0  0
    9.4826   33.4487   17.4124 N   0  0  0  0  0  0  0  0  0  0  0  0
    8.3258   37.6936   19.7214 C   0  0  0  0  0  0  0  0  0  0  0  0
    9.6397   38.1487   19.7440 C   0  0  0  0  0  0  0  0  0  0  0  0
   10.6642   37.3619   19.2248 C   0  0  0  0  0  0  0  0  0  0  0  0
   10.3941   36.1076   18.6444 C   0  0  0  0  0  0  0  0  0  0  0  0
    5.0511   34.3373   18.8044 N   0  0  0  0  0  0  0  0  0  0  0  0
   11.7667   35.0448   18.1157 S   0  0  0  0  0  0  0  0  0  0  0  0
   13.0955   35.5773   19.1858 C   0  0  0  0  0  0  0  0  0  0  0  0
   14.4027   35.1141   18.9991 C   0  0  0  0  0  0  0  0  0  0  0  0
   15.4087   35.4938   19.8939 C   0  0  0  0  0  0  0  0  0  0  0  0
   15.0960   36.3026   20.9939 C   0  0  0  0  0  0  0  0  0  0  0  0
   13.7872   36.7567   21.1852 C   0  0  0  0  0  0  0  0  0  0  0  0
   12.7850   36.3951   20.2807 C   0  0  0  0  0  0  0  0  0  0  0  0
    9.6793   32.5248   17.8579 H   0  0  0  0  0  0  0  0  0  0  0  0
    9.5847   33.4900   16.3748 H   0  0  0  0  0  0  0  0  0  0  0  0
    7.5420   38.3063   20.1500 H   0  0  0  0  0  0  0  0  0  0  0  0
    9.8693   39.1078   20.1906 H   0  0  0  0  0  0  0  0  0  0  0  0
   11.6722   37.7351   19.3238 H   0  0  0  0  0  0  0  0  0  0  0  0
    4.3119   34.7658   18.2042 H   0  0  0  0  0  0  0  0  0  0  0  0
    4.7880   33.5743   19.4671 H   0  0  0  0  0  0  0  0  0  0  0  0
   14.6395   34.4673   18.1640 H   0  0  0  0  0  0  0  0  0  0  0  0
   16.4230   35.1455   19.7483 H   0  0  0  0  0  0  0  0  0  0  0  0
   15.8719   36.5839   21.6941 H   0  0  0  0  0  0  0  0  0  0  0  0
   13.5500   37.3843   22.0345 H   0  0  0  0  0  0  0  0  0  0  0  0
   11.7705   36.7389   20.4384 H   0  0  0  0  0  0  0  0  0  0  0  0
  2  1  1  0
  3  2  2  0
  4  3  1  0
  5  4  2  0
  6  5  1  0
  6  1  2  0
  7  3  1  0
  8  1  1  0
  9  8  2  0
 10  9  1  0
 11 10  2  0
 11  2  1  0
 12  5  1  0
 13 11  1  0
 14 13  1  0
 15 14  2  0
 16 15  1  0
 17 16  2  0
 18 17  1  0
 19 18  2  0
 19 14  1  0
  7 20  1  0
  7 21  1  0
  8 22  1  0
  9 23  1  0
 10 24  1  0
 12 25  1  0
 12 26  1  0
 15 27  1  0
 16 28  1  0
 17 29  1  0
 18 30  1  0
 19 31  1  0
M  END
