
     RDKit          3D

 49 51  0  0  0  0  0  0  0  0999 V2000
   -3.2156   17.6893    6.7411 P   0  0  2  0  0  0  0  0  0  0  0  0
   -2.4788   14.9948    6.4104 P   0  0  1  0  0  0  0  0  0  0  0  0
   -5.0755   13.6429    6.2669 P   0  0  0  0  0  0  0  0  0  0  0  0
   -3.4090   18.2813    9.1992 C   0  0  0  0  0  0  0  0  0  0  0  0
   -3.0669   18.8452    7.9528 O   0  0  0  0  0  0  0  0  0  0  0  0
   -3.6295   19.4204   10.1985 C   0  0  1  0  0  0  0  0  0  0  0  0
   -2.4061   20.0971   10.4131 O   0  0  0  0  0  0  0  0  0  0  0  0
   -4.6727   20.4278    9.6925 C   0  0  1  0  0  0  0  0  0  0  0  0
   -5.4241   20.9166   10.7775 O   0  0  0  0  0  0  0  0  0  0  0  0
   -3.8033   21.5207    9.1054 C   0  0  1  0  0  0  0  0  0  0  0  0
   -4.4236   22.7861    9.1111 O   0  0  0  0  0  0  0  0  0  0  0  0
   -2.5631   21.4341    9.9951 C   0  0  2  0  0  0  0  0  0  0  0  0
    1.4781   24.5951   10.1749 N   0  0  0  0  0  0  0  0  0  0  0  0
   -2.4975   18.2129    5.5227 O   0  0  0  0  0  0  0  0  0  0  0  0
   -1.0941   14.4093    6.5321 O   0  0  0  0  0  0  0  0  0  0  0  0
   -5.8395   12.5969    7.0414 O   0  0  0  0  0  0  0  0  0  0  0  0
    0.3875   24.5364   11.0069 C   0  0  0  0  0  0  0  0  0  0  0  0
    0.2975   25.4310   12.1050 N   0  0  0  0  0  0  0  0  0  0  0  0
   -4.8496   17.4385    6.4469 O   0  0  0  0  0  0  0  0  0  0  0  0
   -2.8621   15.2939    4.8046 O   0  0  0  0  0  0  0  0  0  0  0  0
   -6.0105   15.0229    6.0814 O   0  0  0  0  0  0  0  0  0  0  0  0
   -0.6135   23.6363   10.7829 N   0  0  0  0  0  0  0  0  0  0  0  0
   -3.6634   13.9982    7.2058 N   0  0  0  0  0  0  0  0  0  0  0  0
   -2.4365   16.3514    7.3882 O   0  0  0  0  0  0  0  0  0  0  0  0
   -4.6590   13.0141    4.7716 O   0  0  0  0  0  0  0  0  0  0  0  0
   -0.4850   22.8116    9.7162 C   0  0  0  0  0  0  0  0  0  0  0  0
    0.5860   22.8380    8.8817 C   0  0  0  0  0  0  0  0  0  0  0  0
    1.6110   23.7584    9.1057 C   0  0  0  0  0  0  0  0  0  0  0  0
    2.6292   23.8357    8.3649 O   0  0  0  0  0  0  0  0  0  0  0  0
    0.4553   21.8973    7.9222 N   0  0  0  0  0  0  0  0  0  0  0  0
   -0.7385   21.3178    8.2265 C   0  0  0  0  0  0  0  0  0  0  0  0
   -1.3442   21.8700    9.3125 N   0  0  0  0  0  0  0  0  0  0  0  0
   -4.3516   17.6872    9.1445 H   0  0  0  0  0  0  0  0  0  0  0  0
   -2.5845   17.6339    9.5715 H   0  0  0  0  0  0  0  0  0  0  0  0
   -3.9603   18.9719   11.1615 H   0  0  0  0  0  0  0  0  0  0  0  0
   -5.3513   20.0061    8.9133 H   0  0  0  0  0  0  0  0  0  0  0  0
   -6.1090   20.2268   10.9793 H   0  0  0  0  0  0  0  0  0  0  0  0
   -3.5462   21.2704    8.0545 H   0  0  0  0  0  0  0  0  0  0  0  0
   -4.9909   22.8615    9.9217 H   0  0  0  0  0  0  0  0  0  0  0  0
   -2.7163   22.0493   10.9102 H   0  0  0  0  0  0  0  0  0  0  0  0
    2.2302   25.2960   10.3652 H   0  0  0  0  0  0  0  0  0  0  0  0
   -0.5286   25.3997   12.7429 H   0  0  0  0  0  0  0  0  0  0  0  0
    1.0512   26.1294   12.2908 H   0  0  0  0  0  0  0  0  0  0  0  0
   -5.2501   18.3442    6.4594 H   0  0  0  0  0  0  0  0  0  0  0  0
   -3.3247   16.1690    4.8072 H   0  0  0  0  0  0  0  0  0  0  0  0
   -5.7786   15.5926    6.8579 H   0  0  0  0  0  0  0  0  0  0  0  0
   -3.2005   13.0882    7.4276 H   0  0  0  0  0  0  0  0  0  0  0  0
   -5.4668   12.5301    4.4646 H   0  0  0  0  0  0  0  0  0  0  0  0
   -1.1483   20.4910    7.6645 H   0  0  0  0  0  0  0  0  0  0  0  0
  5  4  1  0
  1  5  1  1
  6  4  1  0
  7  6  1  0
  8  6  1  0
  8  9  1  0
 10  8  1  0
 10 11  1  0
 12 10  1  0
 12  7  1  0
 14  1  2  0
 15  2  2  0
 16  3  2  0
 17 13  1  0
 18 17  1  0
 19  1  1  0
  2 20  1  6
 21  3  1  0
 22 17  2  0
 23  3  1  0
 23  2  1  0
 24  2  1  0
 24  1  1  0
 25  3  1  0
 26 22  1  0
 27 26  2  0
 28 27  1  0
 28 13  1  0
 29 28  2  0
 30 27  1  0
 31 30  2  0
 32 31  1  0
 12 32  1  0
 32 26  1  0
  4 33  1  0
  4 34  1  0
  6 35  1  1
  8 36  1  6
  9 37  1  0
 10 38  1  6
 11 39  1  0
 12 40  1  1
 13 41  1  0
 18 42  1  0
 18 43  1  0
 19 44  1  0
 20 45  1  0
 21 46  1  0
 23 47  1  0
 25 48  1  0
 31 49  1  0
M  END
