
     RDKit          3D

 29 29  0  0  0  0  0  0  0  0999 V2000
   35.9359    8.5728   30.5989 P   0  0  0  0  0  0  0  0  0  0  0  0
   36.5318    7.2346   30.2296 O   0  0  0  0  0  0  0  0  0  0  0  0
   37.1057    9.5307   31.3287 O   0  0  0  0  0  0  0  0  0  0  0  0
   35.3409    9.3584   29.2422 O   0  0  0  0  0  0  0  0  0  0  0  0
   34.7074    8.4003   31.7471 O   0  0  0  0  0  0  0  0  0  0  0  0
   31.2182    7.3337   34.1063 N   0  0  0  0  0  0  0  0  0  0  0  0
   31.7051    6.3078   34.8509 C   0  0  0  0  0  0  0  0  0  0  0  0
   30.9986    5.9360   36.1202 C   0  0  0  0  0  0  0  0  0  0  0  0
   32.8566    5.6226   34.4245 C   0  0  0  0  0  0  0  0  0  0  0  0
   33.4122    4.5980   35.1938 O   0  0  0  0  0  0  0  0  0  0  0  0
   33.4713    5.9833   33.2115 C   0  0  0  0  0  0  0  0  0  0  0  0
   34.6563    5.1655   32.7241 C   0  0  0  0  0  0  0  0  0  0  0  0
   34.8445    3.9911   33.5660 N   0  0  0  0  0  0  0  0  0  0  0  0
   32.9345    7.0608   32.4602 C   0  0  0  0  0  0  0  0  0  0  0  0
   33.6439    7.6238   31.2555 C   0  0  0  0  0  0  0  0  0  0  0  0
   31.8037    7.7276   32.9490 C   0  0  0  0  0  0  0  0  0  0  0  0
   37.9686    9.1462   31.0310 H   0  0  0  0  0  0  0  0  0  0  0  0
   36.1340    9.5060   28.6676 H   0  0  0  0  0  0  0  0  0  0  0  0
   29.9539    6.3114   36.0976 H   0  0  0  0  0  0  0  0  0  0  0  0
   31.5108    6.3871   36.9967 H   0  0  0  0  0  0  0  0  0  0  0  0
   31.0003    4.8328   36.2455 H   0  0  0  0  0  0  0  0  0  0  0  0
   32.9089    3.7586   35.4507 H   0  0  0  0  0  0  0  0  0  0  0  0
   34.5463    4.8657   31.6694 H   0  0  0  0  0  0  0  0  0  0  0  0
   35.5807    5.7822   32.7495 H   0  0  0  0  0  0  0  0  0  0  0  0
   35.7024    3.4940   33.2338 H   0  0  0  0  0  0  0  0  0  0  0  0
   34.0422    3.3401   33.4031 H   0  0  0  0  0  0  0  0  0  0  0  0
   33.9585    6.7886   30.5901 H   0  0  0  0  0  0  0  0  0  0  0  0
   32.9636    8.2728   30.6619 H   0  0  0  0  0  0  0  0  0  0  0  0
   31.3890    8.5726   32.4144 H   0  0  0  0  0  0  0  0  0  0  0  0
  2  1  2  0
  3  1  1  0
  4  1  1  0
  5  1  1  0
  7  6  2  0
  8  7  1  0
  9  7  1  0
 10  9  1  0
 11  9  2  0
 12 11  1  0
 13 12  1  0
 14 11  1  0
 15 14  1  0
 15  5  1  0
 16 14  2  0
 16  6  1  0
  3 17  1  0
  4 18  1  0
  8 19  1  0
  8 20  1  0
  8 21  1  0
 10 22  1  0
 12 23  1  0
 12 24  1  0
 13 25  1  0
 13 26  1  0
 15 27  1  0
 15 28  1  0
 16 29  1  0
M  END
