
     RDKit          3D

 37 37  0  0  0  0  0  0  0  0999 V2000
   -7.3436   -4.7703   18.1589 N   0  0  0  0  0  0  0  0  0  0  0  0
   -6.8911   -6.0799   18.5013 C   0  0  0  0  0  0  0  0  0  0  0  0
   -6.8045   -7.0260   17.3666 C   0  0  0  0  0  0  0  0  0  0  0  0
   -6.6586   -6.4220   19.7910 C   0  0  0  0  0  0  0  0  0  0  0  0
   -6.2467   -7.7806   20.2583 C   0  0  0  0  0  0  0  0  0  0  0  0
   -5.7719   -1.8396   22.2156 P   0  0  0  0  0  0  0  0  0  0  0  0
   -8.9442   -0.1004   17.3231 N   0  0  0  0  0  0  0  0  0  0  0  0
   -7.4379   -6.7853   16.3026 O   0  0  0  0  0  0  0  0  0  0  0  0
   -8.6816   -1.1109   16.4551 C   0  0  0  0  0  0  0  0  0  0  0  0
   -9.0199   -0.9396   15.0032 C   0  0  0  0  0  0  0  0  0  0  0  0
   -6.0258   -8.1642   17.4368 O   0  0  0  0  0  0  0  0  0  0  0  0
   -8.0910   -2.2916   16.9256 C   0  0  0  0  0  0  0  0  0  0  0  0
   -7.7931   -3.3310   16.0417 O   0  0  0  0  0  0  0  0  0  0  0  0
   -7.7855   -2.4197   18.2997 C   0  0  0  0  0  0  0  0  0  0  0  0
   -7.1742   -3.6628   18.8088 C   0  0  0  0  0  0  0  0  0  0  0  0
   -8.1035   -1.3614   19.1812 C   0  0  0  0  0  0  0  0  0  0  0  0
   -7.7522   -1.4064   20.6510 C   0  0  0  0  0  0  0  0  0  0  0  0
   -8.6674   -0.1935   18.6488 C   0  0  0  0  0  0  0  0  0  0  0  0
   -4.2926   -1.5340   22.2531 O   0  0  0  0  0  0  0  0  0  0  0  0
   -6.0280   -3.4935   22.3037 O   0  0  0  0  0  0  0  0  0  0  0  0
   -6.5624   -1.0888   23.4926 O   0  0  0  0  0  0  0  0  0  0  0  0
   -6.3550   -1.2785   20.7343 O   0  0  0  0  0  0  0  0  0  0  0  0
   -6.8089   -5.7118   20.5875 H   0  0  0  0  0  0  0  0  0  0  0  0
   -5.8562   -8.3749   19.4061 H   0  0  0  0  0  0  0  0  0  0  0  0
   -7.1073   -8.3023   20.7274 H   0  0  0  0  0  0  0  0  0  0  0  0
   -5.4390   -7.6896   21.0151 H   0  0  0  0  0  0  0  0  0  0  0  0
   -9.7414   -1.7213   14.6848 H   0  0  0  0  0  0  0  0  0  0  0  0
   -8.0978   -0.9996   14.3875 H   0  0  0  0  0  0  0  0  0  0  0  0
   -9.4876    0.0530   14.8304 H   0  0  0  0  0  0  0  0  0  0  0  0
   -6.2554   -8.9881   16.8938 H   0  0  0  0  0  0  0  0  0  0  0  0
   -6.8653   -3.7115   15.9083 H   0  0  0  0  0  0  0  0  0  0  0  0
   -6.5910   -3.6249   19.7109 H   0  0  0  0  0  0  0  0  0  0  0  0
   -8.2322   -0.5596   21.1894 H   0  0  0  0  0  0  0  0  0  0  0  0
   -8.1393   -2.3461   21.1057 H   0  0  0  0  0  0  0  0  0  0  0  0
   -8.8901    0.6493   19.2905 H   0  0  0  0  0  0  0  0  0  0  0  0
   -5.8060   -3.7367   23.2378 H   0  0  0  0  0  0  0  0  0  0  0  0
   -5.8649   -0.9682   24.1855 H   0  0  0  0  0  0  0  0  0  0  0  0
  2  1  1  0
  3  2  1  0
  4  2  2  3
  5  4  1  0
  8  3  2  0
  9  7  2  0
 10  9  1  0
 11  3  1  0
 12  9  1  0
 13 12  1  0
 14 12  2  0
 15 14  1  0
 15  1  2  3
 16 14  1  0
 17 16  1  0
 18 16  2  0
 18  7  1  0
 19  6  2  0
 20  6  1  0
 21  6  1  0
 22 17  1  0
 22  6  1  0
  4 23  1  0
  5 24  1  0
  5 25  1  0
  5 26  1  0
 10 27  1  0
 10 28  1  0
 10 29  1  0
 11 30  1  0
 13 31  1  0
 15 32  1  0
 17 33  1  0
 17 34  1  0
 18 35  1  0
 20 36  1  0
 21 37  1  0
M  END
