
     RDKit          3D

 21 22  0  0  0  0  0  0  0  0999 V2000
   16.7414   16.2184   20.2584 C   0  0  0  0  0  0  0  0  0  0  0  0
   15.9372   18.4051   24.6839 N   0  0  0  0  0  0  0  0  0  0  0  0
   18.2705   18.6655   24.4999 O   0  0  0  0  0  0  0  0  0  0  0  0
   15.6204   16.4121   21.0685 C   0  0  0  0  0  0  0  0  0  0  0  0
   13.5674   18.1675   25.0309 N   0  0  0  0  0  0  0  0  0  0  0  0
   15.7426   17.0904   22.2865 C   0  0  0  0  0  0  0  0  0  0  0  0
   14.6433   17.3055   23.0558 N   0  0  0  0  0  0  0  0  0  0  0  0
   17.0036   17.5683   22.7073 C   0  0  0  0  0  0  0  0  0  0  0  0
   19.1382   16.5209   19.8094 N   0  0  0  0  0  0  0  0  0  0  0  0
   18.1246   17.3726   21.8757 C   0  0  0  0  0  0  0  0  0  0  0  0
   17.9985   16.6855   20.6631 C   0  0  0  0  0  0  0  0  0  0  0  0
   17.0719   18.2235   23.9566 C   0  0  0  0  0  0  0  0  0  0  0  0
   14.7335   17.9562   24.2429 C   0  0  0  0  0  0  0  0  0  0  0  0
   16.6306   15.7026   19.3129 H   0  0  0  0  0  0  0  0  0  0  0  0
   19.1363   18.7629   23.9907 H   0  0  0  0  0  0  0  0  0  0  0  0
   14.6546   16.0466   20.7419 H   0  0  0  0  0  0  0  0  0  0  0  0
   13.6313   18.6650   25.9467 H   0  0  0  0  0  0  0  0  0  0  0  0
   12.6370   17.8272   24.7009 H   0  0  0  0  0  0  0  0  0  0  0  0
   20.0767   16.8774   20.0973 H   0  0  0  0  0  0  0  0  0  0  0  0
   19.0508   16.0456   18.8834 H   0  0  0  0  0  0  0  0  0  0  0  0
   19.1021   17.7449   22.1372 H   0  0  0  0  0  0  0  0  0  0  0  0
  4  1  2  0
  6  4  1  0
  7  6  2  0
  8  6  1  0
 10  8  1  0
 11 10  2  0
 11  9  1  0
 11  1  1  0
 12  8  2  0
 12  3  1  0
 12  2  1  0
 13  7  1  0
 13  5  1  0
 13  2  2  0
  1 14  1  0
  3 15  1  0
  4 16  1  0
  5 17  1  0
  5 18  1  0
  9 19  1  0
  9 20  1  0
 10 21  1  0
M  END
