
     RDKit          3D

 49 51  0  0  0  0  0  0  0  0999 V2000
   33.1759   63.9854   44.6475 P   0  0  2  0  0  0  0  0  0  0  0  0
   35.5193   62.4321   44.4999 P   0  0  1  0  0  0  0  0  0  0  0  0
   36.8708   62.6664   47.0810 P   0  0  0  0  0  0  0  0  0  0  0  0
   33.0879   65.8387   42.8774 C   0  0  0  0  0  0  0  0  0  0  0  0
   32.2954   64.8822   43.5355 O   0  0  0  0  0  0  0  0  0  0  0  0
   32.0972   66.7542   42.1632 C   0  0  1  0  0  0  0  0  0  0  0  0
   32.0913   66.4333   40.7825 O   0  0  0  0  0  0  0  0  0  0  0  0
   30.6808   66.5508   42.7261 C   0  0  1  0  0  0  0  0  0  0  0  0
   30.0595   67.8015   42.8100 O   0  0  0  0  0  0  0  0  0  0  0  0
   30.0039   65.6901   41.6815 C   0  0  1  0  0  0  0  0  0  0  0  0
   28.6100   65.9011   41.5903 O   0  0  0  0  0  0  0  0  0  0  0  0
   30.7758   66.0663   40.4189 C   0  0  2  0  0  0  0  0  0  0  0  0
   29.4648   64.6055   35.6519 N   0  0  0  0  0  0  0  0  0  0  0  0
   32.2154   62.9754   45.2327 O   0  0  0  0  0  0  0  0  0  0  0  0
   36.7193   62.5061   43.5910 O   0  0  0  0  0  0  0  0  0  0  0  0
   36.5975   61.1918   47.2840 O   0  0  0  0  0  0  0  0  0  0  0  0
   29.2724   65.8139   36.2727 C   0  0  0  0  0  0  0  0  0  0  0  0
   28.6324   66.8743   35.5775 N   0  0  0  0  0  0  0  0  0  0  0  0
   33.8250   64.9870   45.8383 O   0  0  0  0  0  0  0  0  0  0  0  0
   35.1611   60.8316   44.8546 O   0  0  0  0  0  0  0  0  0  0  0  0
   38.4552   62.9391   46.6032 O   0  0  0  0  0  0  0  0  0  0  0  0
   29.6968   66.0106   37.5570 N   0  0  0  0  0  0  0  0  0  0  0  0
   35.7789   63.3877   45.9344 N   0  0  0  0  0  0  0  0  0  0  0  0
   34.3087   63.2345   43.6601 O   0  0  0  0  0  0  0  0  0  0  0  0
   36.6086   63.5169   48.5025 O   0  0  0  0  0  0  0  0  0  0  0  0
   30.3060   64.9816   38.1970 C   0  0  0  0  0  0  0  0  0  0  0  0
   30.5067   63.7798   37.6112 C   0  0  0  0  0  0  0  0  0  0  0  0
   30.0817   63.5719   36.2959 C   0  0  0  0  0  0  0  0  0  0  0  0
   30.2584   62.4732   35.7053 O   0  0  0  0  0  0  0  0  0  0  0  0
   31.1386   62.9505   38.4679 N   0  0  0  0  0  0  0  0  0  0  0  0
   31.3024   63.7175   39.5836 C   0  0  0  0  0  0  0  0  0  0  0  0
   30.7970   64.9705   39.4451 N   0  0  0  0  0  0  0  0  0  0  0  0
   33.6909   66.4457   43.5897 H   0  0  0  0  0  0  0  0  0  0  0  0
   33.7549   65.3503   42.1334 H   0  0  0  0  0  0  0  0  0  0  0  0
   32.4334   67.8072   42.2916 H   0  0  0  0  0  0  0  0  0  0  0  0
   30.6777   66.0512   43.7257 H   0  0  0  0  0  0  0  0  0  0  0  0
   29.3128   67.7108   43.4583 H   0  0  0  0  0  0  0  0  0  0  0  0
   30.1722   64.6213   41.9330 H   0  0  0  0  0  0  0  0  0  0  0  0
   28.4251   66.4746   40.8021 H   0  0  0  0  0  0  0  0  0  0  0  0
   30.3080   66.9620   39.9518 H   0  0  0  0  0  0  0  0  0  0  0  0
   29.1376   64.4727   34.6679 H   0  0  0  0  0  0  0  0  0  0  0  0
   27.9185   67.4648   36.0591 H   0  0  0  0  0  0  0  0  0  0  0  0
   28.8651   67.0771   34.5800 H   0  0  0  0  0  0  0  0  0  0  0  0
   34.1439   64.3733   46.5467 H   0  0  0  0  0  0  0  0  0  0  0  0
   35.1323   60.3761   43.9757 H   0  0  0  0  0  0  0  0  0  0  0  0
   38.5721   62.3912   45.7866 H   0  0  0  0  0  0  0  0  0  0  0  0
   36.1948   64.2981   45.6353 H   0  0  0  0  0  0  0  0  0  0  0  0
   35.6643   63.3328   48.7385 H   0  0  0  0  0  0  0  0  0  0  0  0
   31.7866   63.3581   40.4811 H   0  0  0  0  0  0  0  0  0  0  0  0
  5  4  1  0
  1  5  1  6
  6  4  1  0
  7  6  1  0
  8  6  1  0
  8  9  1  0
 10  8  1  0
 10 11  1  0
 12 10  1  0
 12  7  1  0
 14  1  2  0
 15  2  2  0
 16  3  2  0
 17 13  1  0
 18 17  1  0
 19  1  1  0
  2 20  1  1
 21  3  1  0
 22 17  2  0
 23  3  1  0
 23  2  1  0
 24  1  1  0
 24  2  1  0
 25  3  1  0
 26 22  1  0
 27 26  2  0
 28 27  1  0
 28 13  1  0
 29 28  2  0
 30 27  1  0
 31 30  2  0
 32 26  1  0
 32 31  1  0
 12 32  1  0
  4 33  1  0
  4 34  1  0
  6 35  1  6
  8 36  1  1
  9 37  1  0
 10 38  1  1
 11 39  1  0
 12 40  1  6
 13 41  1  0
 18 42  1  0
 18 43  1  0
 19 44  1  0
 20 45  1  0
 21 46  1  0
 23 47  1  0
 25 48  1  0
 31 49  1  0
M  END
