
     RDKit          3D

 41 43  0  0  0  0  0  0  0  0999 V2000
   64.3623  118.0917  -86.5546 N   0  0  0  0  0  0  0  0  0  0  0  0
   63.3691  118.8130  -84.5283 N   0  0  0  0  0  0  0  0  0  0  0  0
   65.5588  117.2246  -88.4326 N   0  0  0  0  0  0  0  0  0  0  0  0
   66.8888  113.5628  -81.8589 N   0  0  0  0  0  0  0  0  0  0  0  0
   61.5553  116.0262  -78.7298 N   0  0  0  0  0  0  0  0  0  0  0  0
   66.0110  116.5364  -86.0869 C   0  0  0  0  0  0  0  0  0  0  0  0
   65.3184  117.2797  -87.0383 C   0  0  0  0  0  0  0  0  0  0  0  0
   64.2745  117.9978  -85.2272 C   0  0  0  0  0  0  0  0  0  0  0  0
   62.9077  118.6154  -83.2042 C   0  0  0  0  0  0  0  0  0  0  0  0
   67.1131  115.6122  -86.3542 C   0  0  0  0  0  0  0  0  0  0  0  0
   67.5369  114.6114  -85.3797 C   0  0  0  0  0  0  0  0  0  0  0  0
   68.4759  113.6456  -85.7684 C   0  0  0  0  0  0  0  0  0  0  0  0
   68.8901  112.6665  -84.8656 C   0  0  0  0  0  0  0  0  0  0  0  0
   68.3674  112.6410  -83.5711 C   0  0  0  0  0  0  0  0  0  0  0  0
   67.4205  113.5947  -83.1769 C   0  0  0  0  0  0  0  0  0  0  0  0
   66.9960  114.5753  -84.0832 C   0  0  0  0  0  0  0  0  0  0  0  0
   63.2625  119.4438  -82.1177 C   0  0  0  0  0  0  0  0  0  0  0  0
   62.7421  119.1838  -80.8550 C   0  0  0  0  0  0  0  0  0  0  0  0
   61.9066  118.0783  -80.6617 C   0  0  0  0  0  0  0  0  0  0  0  0
   61.5991  117.2305  -81.7283 C   0  0  0  0  0  0  0  0  0  0  0  0
   62.0909  117.5043  -82.9915 C   0  0  0  0  0  0  0  0  0  0  0  0
   67.7495  115.6997  -87.4335 O   0  0  0  0  0  0  0  0  0  0  0  0
   59.8483  118.0220  -79.0245 O   0  0  0  0  0  0  0  0  0  0  0  0
   62.0361  118.5253  -78.0455 O   0  0  0  0  0  0  0  0  0  0  0  0
   65.4248  116.9588  -84.5659 S   0  0  0  0  0  0  0  0  0  0  0  0
   61.3100  117.7004  -79.0679 S   0  0  0  0  0  0  0  0  0  0  0  0
   62.9082  119.5588  -85.0996 H   0  0  0  0  0  0  0  0  0  0  0  0
   65.9567  116.3859  -88.9041 H   0  0  0  0  0  0  0  0  0  0  0  0
   65.1338  117.9510  -89.0507 H   0  0  0  0  0  0  0  0  0  0  0  0
   67.2343  112.8694  -81.1582 H   0  0  0  0  0  0  0  0  0  0  0  0
   66.1444  114.2343  -81.5656 H   0  0  0  0  0  0  0  0  0  0  0  0
   60.6543  115.5352  -78.9249 H   0  0  0  0  0  0  0  0  0  0  0  0
   61.7199  115.9437  -77.7015 H   0  0  0  0  0  0  0  0  0  0  0  0
   68.8975  113.6529  -86.7665 H   0  0  0  0  0  0  0  0  0  0  0  0
   69.6198  111.9264  -85.1680 H   0  0  0  0  0  0  0  0  0  0  0  0
   68.6985  111.8781  -82.8777 H   0  0  0  0  0  0  0  0  0  0  0  0
   66.2357  115.2861  -83.7843 H   0  0  0  0  0  0  0  0  0  0  0  0
   63.9766  120.2409  -82.1904 H   0  0  0  0  0  0  0  0  0  0  0  0
   63.0249  119.8157  -80.0232 H   0  0  0  0  0  0  0  0  0  0  0  0
   60.9747  116.3585  -81.5804 H   0  0  0  0  0  0  0  0  0  0  0  0
   61.8278  116.8427  -83.8081 H   0  0  0  0  0  0  0  0  0  0  0  0
  7  1  1  0
  7  3  1  0
  7  6  2  0
  8  2  1  0
  8  1  2  0
  9  2  1  0
 10  6  1  0
 11 10  1  0
 12 11  2  0
 13 12  1  0
 14 13  2  0
 15 14  1  0
 15  4  1  0
 16 15  2  0
 16 11  1  0
 17  9  2  0
 18 17  1  0
 19 18  2  0
 20 19  1  0
 21 20  2  0
 21  9  1  0
 22 10  2  0
 25  8  1  0
 25  6  1  0
 26 23  2  0
 26 24  2  0
 26 19  1  0
 26  5  1  0
  2 27  1  0
  3 28  1  0
  3 29  1  0
  4 30  1  0
  4 31  1  0
  5 32  1  0
  5 33  1  0
 12 34  1  0
 13 35  1  0
 14 36  1  0
 16 37  1  0
 17 38  1  0
 18 39  1  0
 20 40  1  0
 21 41  1  0
M  END
