
     RDKit          3D

 27 29  0  0  0  0  0  0  0  0999 V2000
   -0.9765   36.1641   27.5544 C   0  0  0  0  0  0  0  0  0  0  0  0
    2.6200   33.6160   26.4201 N   0  0  0  0  0  0  0  0  0  0  0  0
   -0.4139   37.5312   29.4781 O   0  0  0  0  0  0  0  0  0  0  0  0
   -0.6192   35.1988   26.5911 C   0  0  0  0  0  0  0  0  0  0  0  0
    2.7040   34.4373   27.4346 O   0  0  0  0  0  0  0  0  0  0  0  0
    0.6731   34.6669   26.6548 C   0  0  0  0  0  0  0  0  0  0  0  0
    3.1636   32.5862   23.8874 O   0  0  0  0  0  0  0  0  0  0  0  0
    1.5699   35.0753   27.6005 C   0  0  0  0  0  0  0  0  0  0  0  0
   -0.5416   30.8846   21.3834 O   0  0  0  0  0  0  0  0  0  0  0  0
    1.2524   36.0294   28.5606 C   0  0  0  0  0  0  0  0  0  0  0  0
   -0.0447   36.5777   28.5358 C   0  0  0  0  0  0  0  0  0  0  0  0
    1.3732   33.7350   25.9031 C   0  0  0  0  0  0  0  0  0  0  0  0
    0.8907   32.9808   24.7333 C   0  0  0  0  0  0  0  0  0  0  0  0
   -0.4877   32.7890   24.5657 C   0  0  0  0  0  0  0  0  0  0  0  0
   -0.9762   32.0857   23.4620 C   0  0  0  0  0  0  0  0  0  0  0  0
   -0.0885   31.5671   22.5097 C   0  0  0  0  0  0  0  0  0  0  0  0
    1.2841   31.7358   22.6816 C   0  0  0  0  0  0  0  0  0  0  0  0
    1.7825   32.4356   23.7830 C   0  0  0  0  0  0  0  0  0  0  0  0
   -2.8575   31.8263   23.2876 Br  0  0  0  0  0  0  0  0  0  0  0  0
   -1.9695   36.5945   27.5374 H   0  0  0  0  0  0  0  0  0  0  0  0
    0.0517   37.5978   30.3757 H   0  0  0  0  0  0  0  0  0  0  0  0
   -1.3219   34.8912   25.8285 H   0  0  0  0  0  0  0  0  0  0  0  0
    3.6106   33.3589   24.3606 H   0  0  0  0  0  0  0  0  0  0  0  0
   -1.5047   30.6047   21.2527 H   0  0  0  0  0  0  0  0  0  0  0  0
    1.9808   36.3346   29.3008 H   0  0  0  0  0  0  0  0  0  0  0  0
   -1.1863   33.1689   25.3010 H   0  0  0  0  0  0  0  0  0  0  0  0
    1.9701   31.3297   21.9483 H   0  0  0  0  0  0  0  0  0  0  0  0
  4  1  2  0
  5  2  1  0
  6  4  1  0
  8  6  2  0
  8  5  1  0
 10  8  1  0
 11  1  1  0
 11 10  2  0
 11  3  1  0
 12  6  1  0
 12  2  2  0
 13 12  1  0
 14 13  2  0
 15 14  1  0
 16  9  1  0
 16 15  2  0
 17 16  1  0
 18 17  2  0
 18 13  1  0
 18  7  1  0
 19 15  1  0
  1 20  1  0
  3 21  1  0
  4 22  1  0
  7 23  1  0
  9 24  1  0
 10 25  1  0
 14 26  1  0
 17 27  1  0
M  END
