
     RDKit          3D

 35 36  0  0  0  0  0  0  0  0999 V2000
   25.4512   -1.1440    7.8322 P   0  0  0  0  0  0  0  0  0  0  0  0
   23.0547   -0.6032    8.5518 C   0  0  0  0  0  0  0  0  0  0  0  0
   24.3787   -0.5609    8.9979 O   0  0  0  0  0  0  0  0  0  0  0  0
   22.2529    0.2158    9.5714 C   0  0  1  0  0  0  0  0  0  0  0  0
   21.2213    0.9185    8.9226 O   0  0  0  0  0  0  0  0  0  0  0  0
   21.6378   -0.6674   10.6716 C   0  0  1  0  0  0  0  0  0  0  0  0
   21.6497   -0.0002   11.9164 O   0  0  0  0  0  0  0  0  0  0  0  0
   20.2288   -0.8751   10.1801 C   0  0  1  0  0  0  0  0  0  0  0  0
   19.3392   -1.0596   11.2525 O   0  0  0  0  0  0  0  0  0  0  0  0
   19.9964    0.4451    9.4316 C   0  0  2  0  0  0  0  0  0  0  0  0
   19.0145    0.3478    8.3298 N   0  0  0  0  0  0  0  0  0  0  0  0
   19.6515   -1.9562    7.9217 O   0  0  0  0  0  0  0  0  0  0  0  0
   18.1447    1.3823    8.0553 C   0  0  0  0  0  0  0  0  0  0  0  0
   18.2027    2.4662    8.6867 O   0  0  0  0  0  0  0  0  0  0  0  0
   17.1905    1.2504    7.1007 N   0  0  0  0  0  0  0  0  0  0  0  0
   17.0341    0.0928    6.4227 C   0  0  0  0  0  0  0  0  0  0  0  0
   16.1432    0.0014    5.5404 O   0  0  0  0  0  0  0  0  0  0  0  0
   17.8539   -0.9893    6.7072 C   0  0  0  0  0  0  0  0  0  0  0  0
   18.8493   -0.8458    7.6679 C   0  0  0  0  0  0  0  0  0  0  0  0
   24.7454   -1.7709    6.6524 O   0  0  0  0  0  0  0  0  0  0  0  0
   26.3730   -2.3063    8.6244 O   0  0  0  0  0  0  0  0  0  0  0  0
   26.4490    0.1110    7.3193 O   0  0  0  0  0  0  0  0  0  0  0  0
   22.9614   -0.1337    7.5464 H   0  0  0  0  0  0  0  0  0  0  0  0
   22.6931   -1.6510    8.5262 H   0  0  0  0  0  0  0  0  0  0  0  0
   22.9435    0.9608   10.0277 H   0  0  0  0  0  0  0  0  0  0  0  0
   22.1603   -1.6425   10.7875 H   0  0  0  0  0  0  0  0  0  0  0  0
   22.1887    0.8296   11.8404 H   0  0  0  0  0  0  0  0  0  0  0  0
   20.2059   -1.7716    9.5271 H   0  0  0  0  0  0  0  0  0  0  0  0
   19.3045   -2.0377   11.4173 H   0  0  0  0  0  0  0  0  0  0  0  0
   19.6967    1.1842   10.1921 H   0  0  0  0  0  0  0  0  0  0  0  0
   20.6504   -1.9078    8.0708 H   0  0  0  0  0  0  0  0  0  0  0  0
   16.5536    2.0545    6.8944 H   0  0  0  0  0  0  0  0  0  0  0  0
   17.7298   -1.9280    6.1804 H   0  0  0  0  0  0  0  0  0  0  0  0
   26.1770   -2.1718    9.5859 H   0  0  0  0  0  0  0  0  0  0  0  0
   26.1986    0.2620    6.3730 H   0  0  0  0  0  0  0  0  0  0  0  0
  3  2  1  0
  3  1  1  0
  4  2  1  0
  5  4  1  0
  6  4  1  0
  6  7  1  0
  8  6  1  0
  8  9  1  0
 10  8  1  0
 10  5  1  0
 10 11  1  0
 13 11  1  0
 14 13  2  0
 15 13  1  0
 16 15  1  0
 17 16  2  0
 18 16  1  0
 19 18  2  0
 19 12  1  0
 19 11  1  0
 20  1  2  0
 21  1  1  0
 22  1  1  0
  2 23  1  0
  2 24  1  0
  4 25  1  1
  6 26  1  1
  7 27  1  0
  8 28  1  6
  9 29  1  0
 10 30  1  1
 12 31  1  0
 15 32  1  0
 18 33  1  0
 21 34  1  0
 22 35  1  0
M  END
