
     RDKit          3D

 47 50  0  0  0  0  0  0  0  0999 V2000
   13.9682   11.6964   -2.1274 Cl  0  0  0  0  0  0  0  0  0  0  0  0
    7.7502    9.8267    3.5361 N   0  0  0  0  0  0  0  0  0  0  0  0
    8.5778    9.0311    2.6126 C   0  0  0  0  0  0  0  0  0  0  0  0
    9.9524    9.6684    2.3906 C   0  0  0  0  0  0  0  0  0  0  0  0
   10.6904    9.9248    3.7265 C   0  0  0  0  0  0  0  0  0  0  0  0
   10.9521    8.5939    4.4985 C   0  0  0  0  0  0  0  0  0  0  0  0
    9.7043    7.9815    4.9591 N   0  0  0  0  0  0  0  0  0  0  0  0
    9.7889   10.8505    4.5721 C   0  0  0  0  0  0  0  0  0  0  0  0
    8.3883   10.2765    4.7906 C   0  0  0  0  0  0  0  0  0  0  0  0
   12.4754   10.8741    2.0887 C   0  0  0  0  0  0  0  0  0  0  0  0
   12.9799    9.8299    1.2976 C   0  0  0  0  0  0  0  0  0  0  0  0
   13.4245   10.0820    0.0011 C   0  0  0  0  0  0  0  0  0  0  0  0
   13.3725   11.3778   -0.5143 C   0  0  0  0  0  0  0  0  0  0  0  0
   12.0806   10.6057    3.5152 C   0  0  0  0  0  0  0  0  0  0  0  0
   12.8695   12.4223    0.2655 C   0  0  0  0  0  0  0  0  0  0  0  0
   12.4227   12.1728    1.5640 C   0  0  0  0  0  0  0  0  0  0  0  0
    6.3285    9.5686    3.6371 C   0  0  0  0  0  0  0  0  0  0  0  0
    5.8278    9.1691    4.8453 N   0  0  0  0  0  0  0  0  0  0  0  0
    4.5179    8.8484    5.0307 C   0  0  0  0  0  0  0  0  0  0  0  0
    3.6411    8.8981    3.9949 N   0  0  0  0  0  0  0  0  0  0  0  0
    4.1038    9.2849    2.7844 C   0  0  0  0  0  0  0  0  0  0  0  0
    3.3631    9.3956    1.6734 N   0  0  0  0  0  0  0  0  0  0  0  0
    4.1962    9.8547    0.7179 C   0  0  0  0  0  0  0  0  0  0  0  0
    5.4707   10.0450    1.2333 C   0  0  0  0  0  0  0  0  0  0  0  0
    5.4105    9.6437    2.5667 C   0  0  0  0  0  0  0  0  0  0  0  0
    8.1291    8.9321    1.6232 H   0  0  0  0  0  0  0  0  0  0  0  0
    8.6785    7.9965    3.0005 H   0  0  0  0  0  0  0  0  0  0  0  0
   10.5597    9.0184    1.7252 H   0  0  0  0  0  0  0  0  0  0  0  0
    9.7903   10.6273    1.8509 H   0  0  0  0  0  0  0  0  0  0  0  0
   11.4664    7.8818    3.8138 H   0  0  0  0  0  0  0  0  0  0  0  0
   11.6322    8.7206    5.3649 H   0  0  0  0  0  0  0  0  0  0  0  0
    9.2124    7.5886    4.1240 H   0  0  0  0  0  0  0  0  0  0  0  0
    9.9414    7.1629    5.5647 H   0  0  0  0  0  0  0  0  0  0  0  0
   10.2555   11.0453    5.5630 H   0  0  0  0  0  0  0  0  0  0  0  0
    9.6774   11.8323    4.0623 H   0  0  0  0  0  0  0  0  0  0  0  0
    8.4217    9.4400    5.5205 H   0  0  0  0  0  0  0  0  0  0  0  0
    7.7802   11.0864    5.2523 H   0  0  0  0  0  0  0  0  0  0  0  0
   13.0413    8.8224    1.6902 H   0  0  0  0  0  0  0  0  0  0  0  0
   13.8189    9.2715   -0.5986 H   0  0  0  0  0  0  0  0  0  0  0  0
   12.1170   11.5591    4.0885 H   0  0  0  0  0  0  0  0  0  0  0  0
   12.8872    9.9837    3.9596 H   0  0  0  0  0  0  0  0  0  0  0  0
   12.8345   13.4296   -0.1298 H   0  0  0  0  0  0  0  0  0  0  0  0
   12.0543   12.9944    2.1658 H   0  0  0  0  0  0  0  0  0  0  0  0
    4.1749    8.5414    6.0090 H   0  0  0  0  0  0  0  0  0  0  0  0
    2.3430    9.1966    1.5730 H   0  0  0  0  0  0  0  0  0  0  0  0
    3.8846   10.0947   -0.2902 H   0  0  0  0  0  0  0  0  0  0  0  0
    6.2683   10.5276    0.6936 H   0  0  0  0  0  0  0  0  0  0  0  0
  3  2  1  0
  4  3  1  0
  5  4  1  0
  5  6  1  0
  7  6  1  0
  8  5  1  0
  9  8  1  0
  9  2  1  0
 11 10  2  0
 12 11  1  0
 13 12  2  0
 13  1  1  0
 14  5  1  0
 14 10  1  0
 15 13  1  0
 16 10  1  0
 16 15  2  0
 17  2  1  0
 18 17  2  0
 19 18  1  0
 20 19  2  0
 21 20  1  0
 22 21  1  0
 23 22  1  0
 24 23  2  0
 25 24  1  0
 25 21  2  0
 25 17  1  0
  3 26  1  0
  3 27  1  0
  4 28  1  0
  4 29  1  0
  6 30  1  0
  6 31  1  0
  7 32  1  0
  7 33  1  0
  8 34  1  0
  8 35  1  0
  9 36  1  0
  9 37  1  0
 11 38  1  0
 12 39  1  0
 14 40  1  0
 14 41  1  0
 15 42  1  0
 16 43  1  0
 19 44  1  0
 22 45  1  0
 23 46  1  0
 24 47  1  0
M  END
