
     RDKit          3D

 47 50  0  0  0  0  0  0  0  0999 V2000
   12.9726   13.8086   -1.0683 Cl  0  0  0  0  0  0  0  0  0  0  0  0
    7.3298    9.0967    2.6114 N   0  0  0  0  0  0  0  0  0  0  0  0
    8.1724    8.2656    1.7339 C   0  0  0  0  0  0  0  0  0  0  0  0
    9.6072    8.7951    1.6580 C   0  0  0  0  0  0  0  0  0  0  0  0
   10.2392    8.9480    3.0625 C   0  0  0  0  0  0  0  0  0  0  0  0
   10.3246    7.5764    3.8022 C   0  0  0  0  0  0  0  0  0  0  0  0
   11.1784    6.6274    3.0848 N   0  0  0  0  0  0  0  0  0  0  0  0
    9.3405    9.9171    3.8610 C   0  0  0  0  0  0  0  0  0  0  0  0
    7.8851    9.4530    3.9335 C   0  0  0  0  0  0  0  0  0  0  0  0
   11.9340   10.6017    1.9841 C   0  0  0  0  0  0  0  0  0  0  0  0
   12.1538   10.2590    0.6406 C   0  0  0  0  0  0  0  0  0  0  0  0
   12.4589   11.2451   -0.2956 C   0  0  0  0  0  0  0  0  0  0  0  0
   12.5506   12.5797    0.1021 C   0  0  0  0  0  0  0  0  0  0  0  0
   11.6920    9.5193    3.0004 C   0  0  0  0  0  0  0  0  0  0  0  0
   12.3309   12.9297    1.4369 C   0  0  0  0  0  0  0  0  0  0  0  0
   12.0243   11.9443    2.3766 C   0  0  0  0  0  0  0  0  0  0  0  0
    5.8889    8.9526    2.5774 C   0  0  0  0  0  0  0  0  0  0  0  0
    5.2447    8.6171    3.7360 N   0  0  0  0  0  0  0  0  0  0  0  0
    3.9017    8.4035    3.7975 C   0  0  0  0  0  0  0  0  0  0  0  0
    3.1347    8.5015    2.6811 N   0  0  0  0  0  0  0  0  0  0  0  0
    3.7404    8.8272    1.5166 C   0  0  0  0  0  0  0  0  0  0  0  0
    3.1204    8.9738    0.3380 N   0  0  0  0  0  0  0  0  0  0  0  0
    4.0750    9.3476   -0.5378 C   0  0  0  0  0  0  0  0  0  0  0  0
    5.3055    9.4476    0.0963 C   0  0  0  0  0  0  0  0  0  0  0  0
    5.0863    9.0783    1.4223 C   0  0  0  0  0  0  0  0  0  0  0  0
    7.8087    8.2350    0.7059 H   0  0  0  0  0  0  0  0  0  0  0  0
    8.1560    7.2146    2.0887 H   0  0  0  0  0  0  0  0  0  0  0  0
   10.2193    8.1190    1.0237 H   0  0  0  0  0  0  0  0  0  0  0  0
    9.5705    9.7807    1.1439 H   0  0  0  0  0  0  0  0  0  0  0  0
   10.7543    7.7461    4.8156 H   0  0  0  0  0  0  0  0  0  0  0  0
    9.3325    7.1115    3.9714 H   0  0  0  0  0  0  0  0  0  0  0  0
   10.9312    6.6773    2.0699 H   0  0  0  0  0  0  0  0  0  0  0  0
   12.1689    6.9545    3.1560 H   0  0  0  0  0  0  0  0  0  0  0  0
    9.7293   10.0417    4.8958 H   0  0  0  0  0  0  0  0  0  0  0  0
    9.3531   10.9204    3.3819 H   0  0  0  0  0  0  0  0  0  0  0  0
    7.7865    8.5938    4.6305 H   0  0  0  0  0  0  0  0  0  0  0  0
    7.3033   10.2948    4.3712 H   0  0  0  0  0  0  0  0  0  0  0  0
   12.1019    9.2255    0.3209 H   0  0  0  0  0  0  0  0  0  0  0  0
   12.6341   10.9700   -1.3279 H   0  0  0  0  0  0  0  0  0  0  0  0
   11.9866    9.8926    4.0068 H   0  0  0  0  0  0  0  0  0  0  0  0
   12.4180    8.7067    2.7824 H   0  0  0  0  0  0  0  0  0  0  0  0
   12.4082   13.9634    1.7489 H   0  0  0  0  0  0  0  0  0  0  0  0
   11.8766   12.2256    3.4119 H   0  0  0  0  0  0  0  0  0  0  0  0
    3.4433    8.1434    4.7416 H   0  0  0  0  0  0  0  0  0  0  0  0
    2.1020    8.8532    0.1416 H   0  0  0  0  0  0  0  0  0  0  0  0
    3.8813    9.5915   -1.5741 H   0  0  0  0  0  0  0  0  0  0  0  0
    6.1870    9.8558   -0.3693 H   0  0  0  0  0  0  0  0  0  0  0  0
  3  2  1  0
  4  3  1  0
  5  4  1  0
  5  6  1  0
  7  6  1  0
  8  5  1  0
  9  8  1  0
  9  2  1  0
 11 10  2  0
 12 11  1  0
 13 12  2  0
 13  1  1  0
 14  5  1  0
 14 10  1  0
 15 13  1  0
 16 10  1  0
 16 15  2  0
 17  2  1  0
 18 17  2  0
 19 18  1  0
 20 19  2  0
 21 20  1  0
 22 21  1  0
 23 22  1  0
 24 23  2  0
 25 24  1  0
 25 21  2  0
 25 17  1  0
  3 26  1  0
  3 27  1  0
  4 28  1  0
  4 29  1  0
  6 30  1  0
  6 31  1  0
  7 32  1  0
  7 33  1  0
  8 34  1  0
  8 35  1  0
  9 36  1  0
  9 37  1  0
 11 38  1  0
 12 39  1  0
 14 40  1  0
 14 41  1  0
 15 42  1  0
 16 43  1  0
 19 44  1  0
 22 45  1  0
 23 46  1  0
 24 47  1  0
M  END
