
     RDKit          3D

 27 28  0  0  0  0  0  0  0  0999 V2000
   38.1942   14.0934    9.6520 C   0  0  2  0  0  0  0  0  0  0  0  0
   38.0979   14.1023    7.8287 S   0  0  0  0  0  0  0  0  0  0  0  0
   36.7536   13.9048   10.1607 C   0  0  2  0  0  0  0  0  0  0  0  0
   36.1072   13.0689    9.1693 N   0  0  0  0  0  0  0  0  0  0  0  0
   35.9898   15.2447   10.2597 C   0  0  1  0  0  0  0  0  0  0  0  0
   34.8239   15.0678   11.0260 O   0  0  0  0  0  0  0  0  0  0  0  0
   36.8532   16.3525   10.8712 C   0  0  2  0  0  0  0  0  0  0  0  0
   36.1517   17.5686   10.7678 O   0  0  0  0  0  0  0  0  0  0  0  0
   38.1751   16.4317   10.0823 C   0  0  2  0  0  0  0  0  0  0  0  0
   38.8909   15.2119   10.1871 O   0  0  0  0  0  0  0  0  0  0  0  0
   39.0818   17.5616   10.6008 C   0  0  0  0  0  0  0  0  0  0  0  0
   40.1456   17.0313   11.3456 O   0  0  0  0  0  0  0  0  0  0  0  0
   36.6243   13.1094    7.9922 C   0  0  0  0  0  0  0  0  0  0  0  0
   36.0896   12.3063    6.8431 C   0  0  0  0  0  0  0  0  0  0  0  0
   38.7694   13.1837    9.9299 H   0  0  0  0  0  0  0  0  0  0  0  0
   36.7586   13.3935   11.1483 H   0  0  0  0  0  0  0  0  0  0  0  0
   35.7070   15.5629    9.2257 H   0  0  0  0  0  0  0  0  0  0  0  0
   34.8120   15.7866   11.7109 H   0  0  0  0  0  0  0  0  0  0  0  0
   37.0619   16.0974   11.9385 H   0  0  0  0  0  0  0  0  0  0  0  0
   35.2545   17.3572   10.3993 H   0  0  0  0  0  0  0  0  0  0  0  0
   37.9568   16.6592    9.0137 H   0  0  0  0  0  0  0  0  0  0  0  0
   38.4962   18.2753   11.2218 H   0  0  0  0  0  0  0  0  0  0  0  0
   39.4868   18.1221    9.7286 H   0  0  0  0  0  0  0  0  0  0  0  0
   39.7970   16.2073   11.7749 H   0  0  0  0  0  0  0  0  0  0  0  0
   35.6623   12.9906    6.0812 H   0  0  0  0  0  0  0  0  0  0  0  0
   35.2955   11.6219    7.2071 H   0  0  0  0  0  0  0  0  0  0  0  0
   36.8992   11.7044    6.3785 H   0  0  0  0  0  0  0  0  0  0  0  0
  2  1  1  0
  3  1  1  0
  3  4  1  0
  5  3  1  0
  5  6  1  0
  7  5  1  0
  7  8  1  0
  9  7  1  0
  1 10  1  0
 10  9  1  0
  9 11  1  0
 12 11  1  0
 13  4  2  0
 13  2  1  0
 14 13  1  0
  1 15  1  6
  3 16  1  1
  5 17  1  6
  6 18  1  0
  7 19  1  1
  8 20  1  0
  9 21  1  6
 11 22  1  0
 11 23  1  0
 12 24  1  0
 14 25  1  0
 14 26  1  0
 14 27  1  0
M  END
