
     RDKit          3D

 14 14  0  0  0  0  0  0  0  0999 V2000
   20.7543   31.0713    7.3710 N   0  0  0  0  0  0  0  0  0  0  0  0
   20.9730   32.4506    7.7914 C   0  0  0  0  0  0  0  0  0  0  0  0
   22.0769   32.7140    8.7664 C   0  0  0  0  0  0  0  0  0  0  0  0
   22.7631   31.7525    9.2013 O   0  0  0  0  0  0  0  0  0  0  0  0
   19.7389   33.3362    7.8158 C   0  0  0  0  0  0  0  0  0  0  0  0
   20.7554   33.4687    6.6850 C   0  0  0  0  0  0  0  0  0  0  0  0
   22.3278   34.0019    9.2089 O   0  0  0  0  0  0  0  0  0  0  0  0
   20.7579   30.4680    8.2249 H   0  0  0  0  0  0  0  0  0  0  0  0
   21.5618   30.7795    6.7742 H   0  0  0  0  0  0  0  0  0  0  0  0
   19.7612   34.1765    8.5420 H   0  0  0  0  0  0  0  0  0  0  0  0
   18.7931   32.8378    7.5138 H   0  0  0  0  0  0  0  0  0  0  0  0
   20.3949   33.0589    5.7171 H   0  0  0  0  0  0  0  0  0  0  0  0
   21.3630   34.3969    6.7423 H   0  0  0  0  0  0  0  0  0  0  0  0
   22.4265   34.2022   10.1969 H   0  0  0  0  0  0  0  0  0  0  0  0
  2  1  1  0
  3  2  1  0
  4  3  2  0
  5  2  1  0
  6  2  1  0
  6  5  1  0
  7  3  1  0
  1  8  1  0
  1  9  1  0
  5 10  1  0
  5 11  1  0
  6 12  1  0
  6 13  1  0
  7 14  1  0
M  END
