
     RDKit          3D

 14 14  0  0  0  0  0  0  0  0999 V2000
   21.3569   31.2707    7.4177 N   0  0  0  0  0  0  0  0  0  0  0  0
   21.4550   32.5999    8.0096 C   0  0  0  0  0  0  0  0  0  0  0  0
   22.6291   32.8833    8.8926 C   0  0  0  0  0  0  0  0  0  0  0  0
   23.1747   34.0171    8.8545 O   0  0  0  0  0  0  0  0  0  0  0  0
   20.1341   33.2958    8.2911 C   0  0  0  0  0  0  0  0  0  0  0  0
   20.9810   33.7142    7.0922 C   0  0  0  0  0  0  0  0  0  0  0  0
   23.1306   31.8994    9.7281 O   0  0  0  0  0  0  0  0  0  0  0  0
   21.5714   30.5682    8.1617 H   0  0  0  0  0  0  0  0  0  0  0  0
   22.0937   31.1859    6.6807 H   0  0  0  0  0  0  0  0  0  0  0  0
   20.1420   34.0287    9.1257 H   0  0  0  0  0  0  0  0  0  0  0  0
   19.2266   32.7153    8.0194 H   0  0  0  0  0  0  0  0  0  0  0  0
   20.5578   33.3889    6.1177 H   0  0  0  0  0  0  0  0  0  0  0  0
   21.4729   34.7019    7.2208 H   0  0  0  0  0  0  0  0  0  0  0  0
   22.6088   31.0486    9.9010 H   0  0  0  0  0  0  0  0  0  0  0  0
  2  1  1  0
  3  2  1  0
  4  3  2  0
  5  2  1  0
  6  2  1  0
  6  5  1  0
  7  3  1  0
  1  8  1  0
  1  9  1  0
  5 10  1  0
  5 11  1  0
  6 12  1  0
  6 13  1  0
  7 14  1  0
M  END
