
     RDKit          3D

 49 51  0  0  0  0  0  0  0  0999 V2000
   -3.0048   -5.1244   -4.1268 P   0  0  2  0  0  0  0  0  0  0  0  0
   -5.7625   -4.6755   -4.4066 P   0  0  1  0  0  0  0  0  0  0  0  0
   -7.2910   -5.6532   -6.7126 P   0  0  0  0  0  0  0  0  0  0  0  0
   -1.7698   -3.3044   -5.4274 C   0  0  0  0  0  0  0  0  0  0  0  0
   -1.6458   -4.1681   -4.3223 O   0  0  0  0  0  0  0  0  0  0  0  0
   -0.3740   -2.7279   -5.6908 C   0  0  1  0  0  0  0  0  0  0  0  0
   -0.0407   -1.8225   -4.6517 O   0  0  0  0  0  0  0  0  0  0  0  0
    0.6737   -3.8534   -5.7155 C   0  0  1  0  0  0  0  0  0  0  0  0
    1.7086   -3.5183   -6.6018 O   0  0  0  0  0  0  0  0  0  0  0  0
    1.1810   -3.8486   -4.2879 C   0  0  1  0  0  0  0  0  0  0  0  0
    2.5184   -4.2551   -4.2115 O   0  0  0  0  0  0  0  0  0  0  0  0
    1.0328   -2.3777   -3.9221 C   0  0  2  0  0  0  0  0  0  0  0  0
    2.7049    0.1526    0.2177 N   0  0  0  0  0  0  0  0  0  0  0  0
   -2.8826   -5.7947   -2.7808 O   0  0  0  0  0  0  0  0  0  0  0  0
   -6.6862   -3.6832   -3.7554 O   0  0  0  0  0  0  0  0  0  0  0  0
   -7.0483   -5.8454   -8.1907 O   0  0  0  0  0  0  0  0  0  0  0  0
    3.1848    0.1941   -1.0650 C   0  0  0  0  0  0  0  0  0  0  0  0
    4.2892    1.0335   -1.3636 N   0  0  0  0  0  0  0  0  0  0  0  0
   -3.0770   -6.2428   -5.3743 O   0  0  0  0  0  0  0  0  0  0  0  0
   -6.0134   -6.1945   -3.7435 O   0  0  0  0  0  0  0  0  0  0  0  0
   -7.3962   -7.1442   -5.9394 O   0  0  0  0  0  0  0  0  0  0  0  0
    2.6100   -0.5617   -2.0477 N   0  0  0  0  0  0  0  0  0  0  0  0
   -5.9653   -4.6749   -6.1366 N   0  0  0  0  0  0  0  0  0  0  0  0
   -4.2545   -4.0114   -4.1058 O   0  0  0  0  0  0  0  0  0  0  0  0
   -8.7464   -4.8507   -6.4988 O   0  0  0  0  0  0  0  0  0  0  0  0
    1.5644   -1.3540   -1.6948 C   0  0  0  0  0  0  0  0  0  0  0  0
    1.0753   -1.4141   -0.4337 C   0  0  0  0  0  0  0  0  0  0  0  0
    1.6543   -0.6418    0.5624 C   0  0  0  0  0  0  0  0  0  0  0  0
    1.2376   -0.6615    1.7486 O   0  0  0  0  0  0  0  0  0  0  0  0
    0.0286   -2.2619   -0.3650 N   0  0  0  0  0  0  0  0  0  0  0  0
   -0.0813   -2.7046   -1.6459 C   0  0  0  0  0  0  0  0  0  0  0  0
    0.8507   -2.1689   -2.4818 N   0  0  0  0  0  0  0  0  0  0  0  0
   -2.1061   -3.8512   -6.3385 H   0  0  0  0  0  0  0  0  0  0  0  0
   -2.4775   -2.4762   -5.2030 H   0  0  0  0  0  0  0  0  0  0  0  0
   -0.3923   -2.1804   -6.6588 H   0  0  0  0  0  0  0  0  0  0  0  0
    0.2509   -4.8517   -5.9815 H   0  0  0  0  0  0  0  0  0  0  0  0
    1.3756   -3.7226   -7.5145 H   0  0  0  0  0  0  0  0  0  0  0  0
    0.5651   -4.5111   -3.6425 H   0  0  0  0  0  0  0  0  0  0  0  0
    3.0263   -3.6755   -4.8379 H   0  0  0  0  0  0  0  0  0  0  0  0
    1.9553   -1.8460   -4.2512 H   0  0  0  0  0  0  0  0  0  0  0  0
    3.1568    0.7412    0.9542 H   0  0  0  0  0  0  0  0  0  0  0  0
    5.2420    0.7936   -1.0103 H   0  0  0  0  0  0  0  0  0  0  0  0
    4.1676    1.8978   -1.9368 H   0  0  0  0  0  0  0  0  0  0  0  0
   -2.5719   -5.8254   -6.1169 H   0  0  0  0  0  0  0  0  0  0  0  0
   -5.4130   -6.8026   -4.2419 H   0  0  0  0  0  0  0  0  0  0  0  0
   -7.1424   -6.9600   -4.9998 H   0  0  0  0  0  0  0  0  0  0  0  0
   -6.1472   -3.6894   -6.4315 H   0  0  0  0  0  0  0  0  0  0  0  0
   -8.6235   -3.9752   -6.9454 H   0  0  0  0  0  0  0  0  0  0  0  0
   -0.8417   -3.4050   -1.9605 H   0  0  0  0  0  0  0  0  0  0  0  0
  5  4  1  0
  1  5  1  6
  6  4  1  0
  7  6  1  0
  8  6  1  0
  8  9  1  0
 10  8  1  0
 10 11  1  0
 12 10  1  0
 12  7  1  0
 14  1  2  0
 15  2  2  0
 16  3  2  0
 17 13  1  0
 18 17  1  0
 19  1  1  0
  2 20  1  1
 21  3  1  0
 22 17  2  0
 23  3  1  0
 23  2  1  0
 24  2  1  0
 24  1  1  0
 25  3  1  0
 26 22  1  0
 27 26  2  0
 28 27  1  0
 28 13  1  0
 29 28  2  0
 30 27  1  0
 31 30  2  0
 32 31  1  0
 32 26  1  0
 12 32  1  0
  4 33  1  0
  4 34  1  0
  6 35  1  6
  8 36  1  6
  9 37  1  0
 10 38  1  1
 11 39  1  0
 12 40  1  6
 13 41  1  0
 18 42  1  0
 18 43  1  0
 19 44  1  0
 20 45  1  0
 21 46  1  0
 23 47  1  0
 25 48  1  0
 31 49  1  0
M  END
