
     RDKit          3D

 14 13  0  0  0  0  0  0  0  0999 V2000
  -10.2911   -7.5751  125.2574 P   0  0  0  0  0  0  0  0  0  0  0  0
  -12.5243   -5.5438  125.6509 P   0  0  0  0  0  0  0  0  0  0  0  0
  -11.9417   -7.0339  124.9663 N   0  0  0  0  0  0  0  0  0  0  0  0
   -9.7665   -8.3125  124.0458 O   0  0  0  0  0  0  0  0  0  0  0  0
  -10.4144   -8.7127  126.4929 O   0  0  0  0  0  0  0  0  0  0  0  0
   -9.2145   -6.3673  125.7290 O   0  0  0  0  0  0  0  0  0  0  0  0
  -13.1034   -4.7456  124.5014 O   0  0  0  0  0  0  0  0  0  0  0  0
  -13.7517   -5.9337  126.7256 O   0  0  0  0  0  0  0  0  0  0  0  0
  -11.3625   -4.6618  126.4839 O   0  0  0  0  0  0  0  0  0  0  0  0
  -12.0850   -6.9988  123.9319 H   0  0  0  0  0  0  0  0  0  0  0  0
  -10.1474   -9.5695  126.0739 H   0  0  0  0  0  0  0  0  0  0  0  0
   -8.3974   -6.8518  126.0092 H   0  0  0  0  0  0  0  0  0  0  0  0
  -14.3961   -6.4665  126.1946 H   0  0  0  0  0  0  0  0  0  0  0  0
  -11.5115   -3.7215  126.2112 H   0  0  0  0  0  0  0  0  0  0  0  0
  3  2  1  0
  3  1  1  0
  4  1  2  0
  5  1  1  0
  6  1  1  0
  7  2  2  0
  8  2  1  0
  9  2  1  0
  3 10  1  0
  5 11  1  0
  6 12  1  0
  8 13  1  0
  9 14  1  0
M  END
