
     RDKit          3D

 14 13  0  0  0  0  0  0  0  0999 V2000
  -12.5733  -41.8334  127.6934 P   0  0  0  0  0  0  0  0  0  0  0  0
  -11.2299  -42.3751  125.0400 P   0  0  0  0  0  0  0  0  0  0  0  0
  -11.9827  -41.2492  126.1490 N   0  0  0  0  0  0  0  0  0  0  0  0
  -13.8134  -41.0548  128.0962 O   0  0  0  0  0  0  0  0  0  0  0  0
  -11.3096  -41.4987  128.7603 O   0  0  0  0  0  0  0  0  0  0  0  0
  -12.9033  -43.4797  127.7551 O   0  0  0  0  0  0  0  0  0  0  0  0
  -12.2246  -42.6103  123.9272 O   0  0  0  0  0  0  0  0  0  0  0  0
   -9.8682  -41.6287  124.3990 O   0  0  0  0  0  0  0  0  0  0  0  0
  -10.7671  -43.8275  125.7315 O   0  0  0  0  0  0  0  0  0  0  0  0
  -11.2874  -40.4932  126.3388 H   0  0  0  0  0  0  0  0  0  0  0  0
  -10.6140  -42.1716  128.5490 H   0  0  0  0  0  0  0  0  0  0  0  0
  -12.8110  -43.7281  128.7095 H   0  0  0  0  0  0  0  0  0  0  0  0
   -9.7845  -42.0000  123.4845 H   0  0  0  0  0  0  0  0  0  0  0  0
  -10.0908  -43.5804  126.4114 H   0  0  0  0  0  0  0  0  0  0  0  0
  3  2  1  0
  3  1  1  0
  4  1  2  0
  5  1  1  0
  6  1  1  0
  7  2  2  0
  8  2  1  0
  9  2  1  0
  3 10  1  0
  5 11  1  0
  6 12  1  0
  8 13  1  0
  9 14  1  0
M  END
