
     RDKit          3D

 14 14  0  0  0  0  0  0  0  0999 V2000
   53.7268   40.7777    8.2120 N   0  0  0  0  0  0  0  0  0  0  0  0
   52.5032   40.3636    8.6476 C   0  0  0  0  0  0  0  0  0  0  0  0
   49.5512   40.4819    9.3957 O   0  0  0  0  0  0  0  0  0  0  0  0
   51.3642   40.5382    7.8370 C   0  0  0  0  0  0  0  0  0  0  0  0
   49.2768   39.2132    7.5167 O   0  0  0  0  0  0  0  0  0  0  0  0
   51.5295   41.1502    6.5782 C   0  0  0  0  0  0  0  0  0  0  0  0
   52.8005   41.5634    6.1623 C   0  0  0  0  0  0  0  0  0  0  0  0
   53.9003   41.3677    6.9987 C   0  0  0  0  0  0  0  0  0  0  0  0
   50.0254   40.0833    8.2968 C   0  0  0  0  0  0  0  0  0  0  0  0
   52.4230   39.8988    9.6215 H   0  0  0  0  0  0  0  0  0  0  0  0
   48.4019   38.8309    7.8556 H   0  0  0  0  0  0  0  0  0  0  0  0
   50.6832   41.3055    5.9208 H   0  0  0  0  0  0  0  0  0  0  0  0
   52.9301   42.0326    5.1956 H   0  0  0  0  0  0  0  0  0  0  0  0
   54.8870   41.6831    6.6869 H   0  0  0  0  0  0  0  0  0  0  0  0
  2  1  2  0
  4  2  1  0
  6  4  2  0
  7  6  1  0
  8  7  2  0
  8  1  1  0
  9  5  1  0
  9  4  1  0
  9  3  2  0
  2 10  1  0
  5 11  1  0
  6 12  1  0
  7 13  1  0
  8 14  1  0
M  END
