
     RDKit          3D

 14 14  0  0  0  0  0  0  0  0999 V2000
   23.4281  -14.1211   24.2848 N   0  0  0  0  0  0  0  0  0  0  0  0
   23.9288  -13.4222   25.4638 C   0  0  0  0  0  0  0  0  0  0  0  0
   25.3012  -12.8235   25.3981 C   0  0  0  0  0  0  0  0  0  0  0  0
   25.7747  -12.2301   26.4023 O   0  0  0  0  0  0  0  0  0  0  0  0
   23.4085  -13.9370   26.7963 C   0  0  0  0  0  0  0  0  0  0  0  0
   22.8682  -12.6317   26.2144 C   0  0  0  0  0  0  0  0  0  0  0  0
   26.0549  -12.9277   24.2419 O   0  0  0  0  0  0  0  0  0  0  0  0
   24.1714  -14.7810   23.9609 H   0  0  0  0  0  0  0  0  0  0  0  0
   23.2811  -13.4159   23.5269 H   0  0  0  0  0  0  0  0  0  0  0  0
   24.0905  -13.7976   27.6621 H   0  0  0  0  0  0  0  0  0  0  0  0
   22.6975  -14.7881   26.7300 H   0  0  0  0  0  0  0  0  0  0  0  0
   21.8328  -12.7221   25.8214 H   0  0  0  0  0  0  0  0  0  0  0  0
   23.2088  -11.7306   26.7670 H   0  0  0  0  0  0  0  0  0  0  0  0
   27.0622  -13.0270   24.2845 H   0  0  0  0  0  0  0  0  0  0  0  0
  2  1  1  0
  3  2  1  0
  4  3  2  0
  5  2  1  0
  6  5  1  0
  6  2  1  0
  7  3  1  0
  1  8  1  0
  1  9  1  0
  5 10  1  0
  5 11  1  0
  6 12  1  0
  6 13  1  0
  7 14  1  0
M  END
