
     RDKit          3D

 17 17  0  0  0  0  0  0  0  0999 V2000
   17.7102    6.1614   15.0902 C   0  0  0  0  0  0  0  0  0  0  0  0
   15.3591    1.9037   17.0213 O   0  0  0  0  0  0  0  0  0  0  0  0
   16.3692    6.5371   15.2120 C   0  0  0  0  0  0  0  0  0  0  0  0
   14.0955    3.7906   18.3108 N   0  0  0  0  0  0  0  0  0  0  0  0
   13.5396    3.0745   15.8332 O   0  0  0  0  0  0  0  0  0  0  0  0
   15.4306    5.6433   15.7367 C   0  0  0  0  0  0  0  0  0  0  0  0
   15.8356    4.3608   16.1338 C   0  0  0  0  0  0  0  0  0  0  0  0
   17.1850    3.9972   16.0197 C   0  0  0  0  0  0  0  0  0  0  0  0
   18.1190    4.8927   15.4969 C   0  0  0  0  0  0  0  0  0  0  0  0
   17.5969    2.7786   16.4380 F   0  0  0  0  0  0  0  0  0  0  0  0
   14.6814    3.2214   16.7977 S   0  0  0  0  0  0  0  0  0  0  0  0
   18.4324    6.8583   14.6849 H   0  0  0  0  0  0  0  0  0  0  0  0
   16.0564    7.5252   14.9002 H   0  0  0  0  0  0  0  0  0  0  0  0
   13.0894    4.0413   18.1882 H   0  0  0  0  0  0  0  0  0  0  0  0
   14.6081    4.6741   18.5299 H   0  0  0  0  0  0  0  0  0  0  0  0
   14.3976    5.9529   15.8259 H   0  0  0  0  0  0  0  0  0  0  0  0
   19.1593    4.6060   15.4117 H   0  0  0  0  0  0  0  0  0  0  0  0
  3  1  2  0
  6  3  1  0
  7  6  2  0
  8  7  1  0
  9  8  2  0
  9  1  1  0
 10  8  1  0
 11  7  1  0
 11  4  1  0
 11  5  2  0
 11  2  2  0
  1 12  1  0
  3 13  1  0
  4 14  1  0
  4 15  1  0
  6 16  1  0
  9 17  1  0
M  END
