
     RDKit          3D

 36 38  0  0  0  0  0  0  0  0999 V2000
   -5.2717    2.9885   15.5603 C   0  0  0  0  0  0  0  0  0  0  0  0
   -4.9573    1.3206   17.8466 N   0  0  0  0  0  0  0  0  0  0  0  0
   -6.1800    0.4784   15.6662 O   0  0  0  0  0  0  0  0  0  0  0  0
   -5.9946    1.7086   16.5216 S   0  0  0  0  0  0  0  0  0  0  0  0
   -6.0750    3.8814   14.8355 C   0  0  0  0  0  0  0  0  0  0  0  0
   -3.0539    8.1629   12.3079 N   0  0  0  0  0  0  0  0  0  0  0  0
   -7.3186    2.2019   17.0493 O   0  0  0  0  0  0  0  0  0  0  0  0
   -5.4879    4.9230   14.1034 C   0  0  0  0  0  0  0  0  0  0  0  0
   -2.0347    7.3811   12.1062 O   0  0  0  0  0  0  0  0  0  0  0  0
   -4.0887    5.0901   14.0851 C   0  0  0  0  0  0  0  0  0  0  0  0
   -3.2927    4.1822   14.8148 C   0  0  0  0  0  0  0  0  0  0  0  0
   -3.8797    3.1413   15.5456 C   0  0  0  0  0  0  0  0  0  0  0  0
   -3.4595    6.2063   13.3177 C   0  0  0  0  0  0  0  0  0  0  0  0
   -2.2175    6.2072   12.6648 C   0  0  0  0  0  0  0  0  0  0  0  0
   -1.2033    5.1069   12.5591 C   0  0  0  0  0  0  0  0  0  0  0  0
   -3.9632    7.4899   13.0445 C   0  0  0  0  0  0  0  0  0  0  0  0
   -5.2716    8.0966   13.4107 C   0  0  0  0  0  0  0  0  0  0  0  0
   -5.3515    8.9504   14.5295 C   0  0  0  0  0  0  0  0  0  0  0  0
   -6.5790    9.5043   14.9209 C   0  0  0  0  0  0  0  0  0  0  0  0
   -7.7453    9.1904   14.2161 C   0  0  0  0  0  0  0  0  0  0  0  0
   -7.6847    8.3229   13.1188 C   0  0  0  0  0  0  0  0  0  0  0  0
   -6.4537    7.7787   12.7142 C   0  0  0  0  0  0  0  0  0  0  0  0
   -4.9197    2.1617   18.4649 H   0  0  0  0  0  0  0  0  0  0  0  0
   -5.4302    0.5668   18.3937 H   0  0  0  0  0  0  0  0  0  0  0  0
   -7.1523    3.7807   14.8348 H   0  0  0  0  0  0  0  0  0  0  0  0
   -6.1264    5.5931   13.5426 H   0  0  0  0  0  0  0  0  0  0  0  0
   -2.2180    4.2969   14.8473 H   0  0  0  0  0  0  0  0  0  0  0  0
   -3.2493    2.4664   16.1108 H   0  0  0  0  0  0  0  0  0  0  0  0
   -0.1926    5.5329   12.3889 H   0  0  0  0  0  0  0  0  0  0  0  0
   -1.1860    4.5205   13.5014 H   0  0  0  0  0  0  0  0  0  0  0  0
   -1.4716    4.4320   11.7205 H   0  0  0  0  0  0  0  0  0  0  0  0
   -4.4586    9.1942   15.0921 H   0  0  0  0  0  0  0  0  0  0  0  0
   -6.6251   10.1683   15.7744 H   0  0  0  0  0  0  0  0  0  0  0  0
   -8.6939    9.6126   14.5218 H   0  0  0  0  0  0  0  0  0  0  0  0
   -8.5881    8.0745   12.5770 H   0  0  0  0  0  0  0  0  0  0  0  0
   -6.4198    7.1084   11.8643 H   0  0  0  0  0  0  0  0  0  0  0  0
  4  3  2  0
  4  2  1  0
  4  1  1  0
  5  1  2  0
  7  4  2  0
  8  5  1  0
  9  6  1  0
 10  8  2  0
 11 10  1  0
 12 11  2  0
 12  1  1  0
 13 10  1  0
 14 13  2  0
 14  9  1  0
 15 14  1  0
 16 13  1  0
 16  6  2  0
 17 16  1  0
 18 17  2  0
 19 18  1  0
 20 19  2  0
 21 20  1  0
 22 21  2  0
 22 17  1  0
  2 23  1  0
  2 24  1  0
  5 25  1  0
  8 26  1  0
 11 27  1  0
 12 28  1  0
 15 29  1  0
 15 30  1  0
 15 31  1  0
 18 32  1  0
 19 33  1  0
 20 34  1  0
 21 35  1  0
 22 36  1  0
M  END
