
     RDKit          3D

 49 51  0  0  0  0  0  0  0  0999 V2000
   25.7787   16.7216   -5.9433 P   0  0  2  0  0  0  0  0  0  0  0  0
   26.1207   17.9032   -3.3942 P   0  0  1  0  0  0  0  0  0  0  0  0
   25.9731   20.7078   -4.2808 P   0  0  0  0  0  0  0  0  0  0  0  0
   27.9193   16.4368   -7.3208 C   0  0  0  0  0  0  0  0  0  0  0  0
   26.7512   15.7551   -6.9174 O   0  0  0  0  0  0  0  0  0  0  0  0
   28.5633   15.6114   -8.4483 C   0  0  1  0  0  0  0  0  0  0  0  0
   28.9787   14.3591   -7.9334 O   0  0  0  0  0  0  0  0  0  0  0  0
   27.5643   15.3671   -9.5993 C   0  0  1  0  0  0  0  0  0  0  0  0
   28.2300   15.3814  -10.8396 O   0  0  0  0  0  0  0  0  0  0  0  0
   27.0421   13.9810   -9.2825 C   0  0  1  0  0  0  0  0  0  0  0  0
   26.6007   13.2613  -10.4094 O   0  0  0  0  0  0  0  0  0  0  0  0
   28.2377   13.3446   -8.5799 C   0  0  2  0  0  0  0  0  0  0  0  0
   28.7456    8.4727   -7.0297 N   0  0  0  0  0  0  0  0  0  0  0  0
   24.4346   16.0347   -5.8189 O   0  0  0  0  0  0  0  0  0  0  0  0
   26.6063   17.4127   -2.0512 O   0  0  0  0  0  0  0  0  0  0  0  0
   26.9167   21.7889   -4.7466 O   0  0  0  0  0  0  0  0  0  0  0  0
   29.2966    9.1031   -8.1208 C   0  0  0  0  0  0  0  0  0  0  0  0
   30.1509    8.3762   -8.9957 N   0  0  0  0  0  0  0  0  0  0  0  0
   25.6222   18.2342   -6.6563 O   0  0  0  0  0  0  0  0  0  0  0  0
   24.4599   18.1250   -3.3612 O   0  0  0  0  0  0  0  0  0  0  0  0
   24.9146   20.3222   -5.5257 O   0  0  0  0  0  0  0  0  0  0  0  0
   29.0339   10.4159   -8.3787 N   0  0  0  0  0  0  0  0  0  0  0  0
   26.9882   19.3478   -3.8593 N   0  0  0  0  0  0  0  0  0  0  0  0
   26.6254   16.7284   -4.4865 O   0  0  0  0  0  0  0  0  0  0  0  0
   25.1081   21.2734   -2.9557 O   0  0  0  0  0  0  0  0  0  0  0  0
   28.2063   11.0654   -7.5278 C   0  0  0  0  0  0  0  0  0  0  0  0
   27.6434   10.4743   -6.4433 C   0  0  0  0  0  0  0  0  0  0  0  0
   27.9188    9.1341   -6.1676 C   0  0  0  0  0  0  0  0  0  0  0  0
   27.4357    8.5410   -5.1671 O   0  0  0  0  0  0  0  0  0  0  0  0
   26.8683   11.3593   -5.7754 N   0  0  0  0  0  0  0  0  0  0  0  0
   27.0013   12.4966   -6.5124 C   0  0  0  0  0  0  0  0  0  0  0  0
   27.8136   12.3417   -7.5986 N   0  0  0  0  0  0  0  0  0  0  0  0
   27.6954   17.4549   -7.7140 H   0  0  0  0  0  0  0  0  0  0  0  0
   28.6307   16.5174   -6.4699 H   0  0  0  0  0  0  0  0  0  0  0  0
   29.4556   16.1626   -8.8184 H   0  0  0  0  0  0  0  0  0  0  0  0
   26.7252   16.1029   -9.6122 H   0  0  0  0  0  0  0  0  0  0  0  0
   27.5467   15.1694  -11.5278 H   0  0  0  0  0  0  0  0  0  0  0  0
   26.1801   14.0691   -8.5889 H   0  0  0  0  0  0  0  0  0  0  0  0
   27.3896   13.0152  -10.9585 H   0  0  0  0  0  0  0  0  0  0  0  0
   28.9086   12.8727   -9.3323 H   0  0  0  0  0  0  0  0  0  0  0  0
   28.9659    7.4664   -6.8517 H   0  0  0  0  0  0  0  0  0  0  0  0
   30.7085    7.5651   -8.6474 H   0  0  0  0  0  0  0  0  0  0  0  0
   30.2296    8.6477  -10.0009 H   0  0  0  0  0  0  0  0  0  0  0  0
   26.4188   18.3227   -7.2380 H   0  0  0  0  0  0  0  0  0  0  0  0
   24.0737   17.2213   -3.2518 H   0  0  0  0  0  0  0  0  0  0  0  0
   25.4975   20.0670   -6.2849 H   0  0  0  0  0  0  0  0  0  0  0  0
   27.5343   19.1071   -4.7166 H   0  0  0  0  0  0  0  0  0  0  0  0
   25.7796   21.3578   -2.2326 H   0  0  0  0  0  0  0  0  0  0  0  0
   26.5107   13.4186   -6.2471 H   0  0  0  0  0  0  0  0  0  0  0  0
  1  5  1  6
  5  4  1  0
  6  4  1  0
  7  6  1  0
  8  6  1  0
  8  9  1  0
 10  8  1  0
 10 11  1  0
 12 10  1  0
 12  7  1  0
 14  1  2  0
 15  2  2  0
 16  3  2  0
 17 13  1  0
 18 17  1  0
 19  1  1  0
  2 20  1  1
 21  3  1  0
 22 17  2  0
 23  3  1  0
 23  2  1  0
 24  1  1  0
 24  2  1  0
 25  3  1  0
 26 22  1  0
 27 26  2  0
 28 27  1  0
 28 13  1  0
 29 28  2  0
 30 27  1  0
 31 30  2  0
 32 31  1  0
 32 26  1  0
 12 32  1  0
  4 33  1  0
  4 34  1  0
  6 35  1  6
  8 36  1  6
  9 37  1  0
 10 38  1  1
 11 39  1  0
 12 40  1  6
 13 41  1  0
 18 42  1  0
 18 43  1  0
 19 44  1  0
 20 45  1  0
 21 46  1  0
 23 47  1  0
 25 48  1  0
 31 49  1  0
M  END
