
     RDKit          3D

 49 51  0  0  0  0  0  0  0  0999 V2000
   25.2398   17.7259   -7.2769 P   0  0  2  0  0  0  0  0  0  0  0  0
   25.2113   19.0259   -4.7629 P   0  0  1  0  0  0  0  0  0  0  0  0
   25.8215   21.6862   -3.6565 P   0  0  0  0  0  0  0  0  0  0  0  0
   27.5190   17.2461   -8.3427 C   0  0  0  0  0  0  0  0  0  0  0  0
   26.2886   16.6375   -8.0147 O   0  0  0  0  0  0  0  0  0  0  0  0
   28.1622   16.4035   -9.4579 C   0  0  1  0  0  0  0  0  0  0  0  0
   28.4644   15.1142   -8.9556 O   0  0  0  0  0  0  0  0  0  0  0  0
   27.2091   16.2550  -10.6630 C   0  0  1  0  0  0  0  0  0  0  0  0
   27.9370   16.2509  -11.8680 O   0  0  0  0  0  0  0  0  0  0  0  0
   26.5781   14.9017  -10.4085 C   0  0  1  0  0  0  0  0  0  0  0  0
   26.1471   14.2398  -11.5741 O   0  0  0  0  0  0  0  0  0  0  0  0
   27.6901   14.1683   -9.6641 C   0  0  2  0  0  0  0  0  0  0  0  0
   27.7847    9.2394   -8.2174 N   0  0  0  0  0  0  0  0  0  0  0  0
   23.9808   16.9674   -6.9115 O   0  0  0  0  0  0  0  0  0  0  0  0
   25.8176   18.6234   -3.4399 O   0  0  0  0  0  0  0  0  0  0  0  0
   25.9533   23.1049   -4.1526 O   0  0  0  0  0  0  0  0  0  0  0  0
   28.4325    9.8544   -9.2631 C   0  0  0  0  0  0  0  0  0  0  0  0
   29.2790    9.0898  -10.1130 N   0  0  0  0  0  0  0  0  0  0  0  0
   24.9049   18.9747   -8.3488 O   0  0  0  0  0  0  0  0  0  0  0  0
   23.5783   18.6502   -4.7871 O   0  0  0  0  0  0  0  0  0  0  0  0
   24.5434   21.5953   -2.5716 O   0  0  0  0  0  0  0  0  0  0  0  0
   28.2734   11.1877   -9.4996 N   0  0  0  0  0  0  0  0  0  0  0  0
   25.5226   20.7164   -5.0806 N   0  0  0  0  0  0  0  0  0  0  0  0
   26.1136   18.1987   -5.9160 O   0  0  0  0  0  0  0  0  0  0  0  0
   27.2492   21.2424   -2.8894 O   0  0  0  0  0  0  0  0  0  0  0  0
   27.4495   11.8738   -8.6743 C   0  0  0  0  0  0  0  0  0  0  0  0
   26.7928   11.2989   -7.6347 C   0  0  0  0  0  0  0  0  0  0  0  0
   26.9618    9.9371   -7.3805 C   0  0  0  0  0  0  0  0  0  0  0  0
   26.3887    9.3566   -6.4208 O   0  0  0  0  0  0  0  0  0  0  0  0
   26.0466   12.2204   -6.9834 N   0  0  0  0  0  0  0  0  0  0  0  0
   26.2944   13.3619   -7.6832 C   0  0  0  0  0  0  0  0  0  0  0  0
   27.1488   13.1755   -8.7314 N   0  0  0  0  0  0  0  0  0  0  0  0
   27.3846   18.2857   -8.7204 H   0  0  0  0  0  0  0  0  0  0  0  0
   28.1901   17.2589   -7.4561 H   0  0  0  0  0  0  0  0  0  0  0  0
   29.1077   16.8997   -9.7689 H   0  0  0  0  0  0  0  0  0  0  0  0
   26.4240   17.0474  -10.6984 H   0  0  0  0  0  0  0  0  0  0  0  0
   28.1655   17.1974  -12.0615 H   0  0  0  0  0  0  0  0  0  0  0  0
   25.6898   15.0338   -9.7564 H   0  0  0  0  0  0  0  0  0  0  0  0
   26.9426   14.0028  -12.1177 H   0  0  0  0  0  0  0  0  0  0  0  0
   28.3649   13.6680  -10.3944 H   0  0  0  0  0  0  0  0  0  0  0  0
   27.9265    8.2165   -8.0548 H   0  0  0  0  0  0  0  0  0  0  0  0
   29.4158    8.0672   -9.9526 H   0  0  0  0  0  0  0  0  0  0  0  0
   29.7752    9.5457  -10.9107 H   0  0  0  0  0  0  0  0  0  0  0  0
   24.5592   18.5248   -9.1605 H   0  0  0  0  0  0  0  0  0  0  0  0
   23.2190   19.0814   -5.6012 H   0  0  0  0  0  0  0  0  0  0  0  0
   23.7597   21.9352   -3.0730 H   0  0  0  0  0  0  0  0  0  0  0  0
   24.6605   21.1016   -5.5274 H   0  0  0  0  0  0  0  0  0  0  0  0
   27.1013   20.3063   -2.6015 H   0  0  0  0  0  0  0  0  0  0  0  0
   25.8548   14.3096   -7.4187 H   0  0  0  0  0  0  0  0  0  0  0  0
  1  5  1  6
  5  4  1  0
  6  4  1  0
  7  6  1  0
  8  6  1  0
  8  9  1  0
 10  8  1  0
 10 11  1  0
 12 10  1  0
 12  7  1  0
 14  1  2  0
 15  2  2  0
 16  3  2  0
 17 13  1  0
 18 17  1  0
 19  1  1  0
  2 20  1  1
 21  3  1  0
 22 17  2  0
 23  3  1  0
 23  2  1  0
 24  1  1  0
 24  2  1  0
 25  3  1  0
 26 22  1  0
 27 26  2  0
 28 27  1  0
 28 13  1  0
 29 28  2  0
 30 27  1  0
 31 30  2  0
 32 31  1  0
 32 26  1  0
 12 32  1  0
  4 33  1  0
  4 34  1  0
  6 35  1  6
  8 36  1  6
  9 37  1  0
 10 38  1  1
 11 39  1  0
 12 40  1  6
 13 41  1  0
 18 42  1  0
 18 43  1  0
 19 44  1  0
 20 45  1  0
 21 46  1  0
 23 47  1  0
 25 48  1  0
 31 49  1  0
M  END
