
     RDKit          3D

 15 15  0  0  0  0  0  0  0  0999 V2000
  -18.9825   -2.7128   -2.6591 N   0  0  0  0  0  0  0  0  0  0  0  0
  -16.3828   -3.2910   -5.1667 C   0  0  0  0  0  0  0  0  0  0  0  0
  -16.2456   -4.0351   -6.3681 N   0  0  0  0  0  0  0  0  0  0  0  0
  -17.7347   -2.6391   -3.3324 C   0  0  0  0  0  0  0  0  0  0  0  0
  -17.5578   -3.3259   -4.4892 N   0  0  0  0  0  0  0  0  0  0  0  0
  -15.3153   -2.5316   -4.6775 C   0  0  0  0  0  0  0  0  0  0  0  0
  -16.6913   -1.8692   -2.8092 C   0  0  0  0  0  0  0  0  0  0  0  0
  -15.4758   -1.8181   -3.4904 C   0  0  0  0  0  0  0  0  0  0  0  0
  -19.1067   -2.2956   -1.7096 H   0  0  0  0  0  0  0  0  0  0  0  0
  -19.7960   -3.1884   -3.1089 H   0  0  0  0  0  0  0  0  0  0  0  0
  -16.0984   -5.0683   -6.3334 H   0  0  0  0  0  0  0  0  0  0  0  0
  -16.2895   -3.5650   -7.2999 H   0  0  0  0  0  0  0  0  0  0  0  0
  -14.3718   -2.4952   -5.2076 H   0  0  0  0  0  0  0  0  0  0  0  0
  -16.8183   -1.3168   -1.8866 H   0  0  0  0  0  0  0  0  0  0  0  0
  -14.6586   -1.2265   -3.0983 H   0  0  0  0  0  0  0  0  0  0  0  0
  3  2  1  0
  4  1  1  0
  5  4  1  0
  5  2  2  0
  6  2  1  0
  7  4  2  0
  8  7  1  0
  8  6  2  0
  1  9  1  0
  1 10  1  0
  3 11  1  0
  3 12  1  0
  6 13  1  0
  7 14  1  0
  8 15  1  0
M  END
