
     RDKit          3D

 24 25  0  0  0  0  0  0  0  0999 V2000
    5.5664   -4.8400   32.4399 C   0  0  0  0  0  0  0  0  0  0  0  0
    4.3784   -4.2783   32.7033 N   0  0  0  0  0  0  0  0  0  0  0  0
    6.4904   -5.3825   33.4996 C   0  0  2  0  0  0  0  0  0  0  0  0
    6.9596   -6.6497   33.1084 O   0  0  0  0  0  0  0  0  0  0  0  0
    5.7481   -5.4690   34.8630 C   0  0  1  0  0  0  0  0  0  0  0  0
    6.6881   -5.5967   35.9020 O   0  0  0  0  0  0  0  0  0  0  0  0
    4.8628   -4.2127   35.0978 C   0  0  2  0  0  0  0  0  0  0  0  0
    4.2905   -4.2441   36.3820 O   0  0  0  0  0  0  0  0  0  0  0  0
    3.7518   -4.1562   34.0192 C   0  0  1  0  0  0  0  0  0  0  0  0
    2.9140   -2.8673   34.1035 C   0  0  0  0  0  0  0  0  0  0  0  0
    2.0958   -2.7289   32.9713 O   0  0  0  0  0  0  0  0  0  0  0  0
    3.8903   -3.8471   31.5525 N   0  0  0  0  0  0  0  0  0  0  0  0
    4.7768   -4.1156   30.6020 N   0  0  0  0  0  0  0  0  0  0  0  0
    5.8385   -4.7259   31.1263 N   0  0  0  0  0  0  0  0  0  0  0  0
    7.3442   -4.6717   33.5889 H   0  0  0  0  0  0  0  0  0  0  0  0
    7.5534   -6.9697   33.8368 H   0  0  0  0  0  0  0  0  0  0  0  0
    5.0884   -6.3705   34.8409 H   0  0  0  0  0  0  0  0  0  0  0  0
    7.2018   -6.4288   35.7301 H   0  0  0  0  0  0  0  0  0  0  0  0
    5.5025   -3.3027   34.9948 H   0  0  0  0  0  0  0  0  0  0  0  0
    4.5142   -3.3826   36.8218 H   0  0  0  0  0  0  0  0  0  0  0  0
    3.0684   -5.0221   34.1651 H   0  0  0  0  0  0  0  0  0  0  0  0
    3.5860   -1.9852   34.1957 H   0  0  0  0  0  0  0  0  0  0  0  0
    2.2787   -2.9077   35.0167 H   0  0  0  0  0  0  0  0  0  0  0  0
    1.2838   -2.2466   33.2759 H   0  0  0  0  0  0  0  0  0  0  0  0
  2  1  1  0
  3  1  1  0
  3  4  1  0
  5  3  1  0
  5  6  1  0
  7  5  1  0
  7  8  1  0
  9  2  1  0
  9  7  1  0
  9 10  1  0
 11 10  1  0
 12  2  1  0
 13 12  2  0
 14 13  1  0
 14  1  2  0
  3 15  1  1
  4 16  1  0
  5 17  1  6
  6 18  1  0
  7 19  1  1
  8 20  1  0
  9 21  1  1
 10 22  1  0
 10 23  1  0
 11 24  1  0
M  END
