
     RDKit          3D

 24 25  0  0  0  0  0  0  0  0999 V2000
    6.4072   -3.8382   31.9943 C   0  0  0  0  0  0  0  0  0  0  0  0
    5.2192   -3.2765   32.2577 N   0  0  0  0  0  0  0  0  0  0  0  0
    7.3312   -4.3807   33.0539 C   0  0  2  0  0  0  0  0  0  0  0  0
    7.8005   -5.6479   32.6628 O   0  0  0  0  0  0  0  0  0  0  0  0
    6.5889   -4.4672   34.4173 C   0  0  1  0  0  0  0  0  0  0  0  0
    7.5289   -4.5949   35.4564 O   0  0  0  0  0  0  0  0  0  0  0  0
    5.7036   -3.2109   34.6521 C   0  0  2  0  0  0  0  0  0  0  0  0
    5.1313   -3.2423   35.9364 O   0  0  0  0  0  0  0  0  0  0  0  0
    4.5926   -3.1544   33.5735 C   0  0  1  0  0  0  0  0  0  0  0  0
    3.7548   -1.8655   33.6579 C   0  0  0  0  0  0  0  0  0  0  0  0
    4.5778   -0.7484   33.8703 O   0  0  0  0  0  0  0  0  0  0  0  0
    4.7311   -2.8453   31.1068 N   0  0  0  0  0  0  0  0  0  0  0  0
    5.6176   -3.1138   30.1563 N   0  0  0  0  0  0  0  0  0  0  0  0
    6.6793   -3.7241   30.6807 N   0  0  0  0  0  0  0  0  0  0  0  0
    8.1850   -3.6699   33.1433 H   0  0  0  0  0  0  0  0  0  0  0  0
    7.6333   -6.2604   33.4259 H   0  0  0  0  0  0  0  0  0  0  0  0
    5.9292   -5.3687   34.3953 H   0  0  0  0  0  0  0  0  0  0  0  0
    7.3169   -3.8961   36.1291 H   0  0  0  0  0  0  0  0  0  0  0  0
    6.3434   -2.3009   34.5492 H   0  0  0  0  0  0  0  0  0  0  0  0
    5.8052   -2.8727   36.5648 H   0  0  0  0  0  0  0  0  0  0  0  0
    3.9092   -4.0203   33.7194 H   0  0  0  0  0  0  0  0  0  0  0  0
    3.0118   -1.9511   34.4818 H   0  0  0  0  0  0  0  0  0  0  0  0
    3.1932   -1.7359   32.7056 H   0  0  0  0  0  0  0  0  0  0  0  0
    4.7278   -0.3433   32.9770 H   0  0  0  0  0  0  0  0  0  0  0  0
  2  1  1  0
  3  1  1  0
  3  4  1  0
  5  3  1  0
  5  6  1  0
  7  5  1  0
  7  8  1  0
  9  2  1  0
  9  7  1  0
  9 10  1  0
 11 10  1  0
 12  2  1  0
 13 12  2  0
 14 13  1  0
 14  1  2  0
  3 15  1  1
  4 16  1  0
  5 17  1  6
  6 18  1  0
  7 19  1  1
  8 20  1  0
  9 21  1  1
 10 22  1  0
 10 23  1  0
 11 24  1  0
M  END
