
     RDKit          3D

 31 33  0  0  0  0  0  0  0  0999 V2000
   -8.2019    2.9498   -2.1862 C   0  0  0  0  0  0  0  0  0  0  0  0
   -7.6004    1.8773   -2.8476 C   0  0  0  0  0  0  0  0  0  0  0  0
   -9.5774    3.1598   -2.2948 C   0  0  0  0  0  0  0  0  0  0  0  0
   -8.3737    1.0058   -3.6112 C   0  0  0  0  0  0  0  0  0  0  0  0
  -10.3549    2.2953   -3.0616 C   0  0  0  0  0  0  0  0  0  0  0  0
  -15.7405    0.8527   -5.5565 C   0  0  0  0  0  0  0  0  0  0  0  0
  -15.7583   -0.9627   -3.9568 C   0  0  0  0  0  0  0  0  0  0  0  0
  -14.6543    0.1680   -6.3778 C   0  0  0  0  0  0  0  0  0  0  0  0
  -14.6500   -1.6892   -4.7211 C   0  0  0  0  0  0  0  0  0  0  0  0
   -9.7570    1.2070   -3.7174 C   0  0  0  0  0  0  0  0  0  0  0  0
  -10.5688    0.3052   -4.5263 C   0  0  0  0  0  0  0  0  0  0  0  0
  -12.4808   -0.5376   -5.3144 C   0  0  0  0  0  0  0  0  0  0  0  0
  -11.2789   -1.4065   -6.0625 S   0  0  0  0  0  0  0  0  0  0  0  0
  -10.0073   -0.6287   -5.3421 N   0  0  0  0  0  0  0  0  0  0  0  0
  -11.9293    0.3707   -4.4953 N   0  0  0  0  0  0  0  0  0  0  0  0
  -16.5708   -0.1516   -4.8761 N   0  0  0  0  0  0  0  0  0  0  0  0
  -13.8886   -0.7029   -5.4902 N   0  0  0  0  0  0  0  0  0  0  0  0
   -7.5988    3.6233   -1.5912 H   0  0  0  0  0  0  0  0  0  0  0  0
   -6.5325    1.7217   -2.7645 H   0  0  0  0  0  0  0  0  0  0  0  0
  -10.0392    3.9950   -1.7842 H   0  0  0  0  0  0  0  0  0  0  0  0
   -7.8859    0.1813   -4.1160 H   0  0  0  0  0  0  0  0  0  0  0  0
  -11.4201    2.4776   -3.1310 H   0  0  0  0  0  0  0  0  0  0  0  0
  -15.2779    1.5442   -4.8158 H   0  0  0  0  0  0  0  0  0  0  0  0
  -16.3805    1.4556   -6.2362 H   0  0  0  0  0  0  0  0  0  0  0  0
  -15.3109   -0.3206   -3.1643 H   0  0  0  0  0  0  0  0  0  0  0  0
  -16.4085   -1.7157   -3.4616 H   0  0  0  0  0  0  0  0  0  0  0  0
  -15.1225   -0.4438   -7.1795 H   0  0  0  0  0  0  0  0  0  0  0  0
  -14.0277    0.9416   -6.8656 H   0  0  0  0  0  0  0  0  0  0  0  0
  -15.1000   -2.4305   -5.4165 H   0  0  0  0  0  0  0  0  0  0  0  0
  -14.0084   -2.2391   -4.0002 H   0  0  0  0  0  0  0  0  0  0  0  0
  -17.2847    0.3584   -4.3052 H   0  0  0  0  0  0  0  0  0  0  0  0
  2  1  2  0
  3  1  1  0
  4  2  1  0
  5  3  2  0
  8  6  1  0
  9  7  1  0
 10  5  1  0
 10  4  2  0
 11 10  1  0
 13 12  1  0
 14 13  1  0
 14 11  2  0
 15 12  2  0
 15 11  1  0
 16  7  1  0
 16  6  1  0
 17  9  1  0
 17  8  1  0
 17 12  1  0
  1 18  1  0
  2 19  1  0
  3 20  1  0
  4 21  1  0
  5 22  1  0
  6 23  1  0
  6 24  1  0
  7 25  1  0
  7 26  1  0
  8 27  1  0
  8 28  1  0
  9 29  1  0
  9 30  1  0
 16 31  1  0
M  END
