
     RDKit          3D

 51 51  0  0  0  0  0  0  0  0999 V2000
   23.9075   17.1692   63.8657 C   0  0  0  0  0  0  0  0  0  0  0  0
   25.0291   16.3226   63.2667 C   0  0  2  0  0  0  0  0  0  0  0  0
   26.1455   17.3450   63.0657 C   0  0  1  0  0  0  0  0  0  0  0  0
   26.0916   18.2023   64.3447 C   0  0  1  0  0  0  0  0  0  0  0  0
   24.6308   18.0995   64.8529 C   0  0  1  0  0  0  0  0  0  0  0  0
   23.9629   19.4410   65.0183 C   0  0  0  0  0  0  0  0  0  0  0  0
   24.6504   20.4928   65.1340 O   0  0  0  0  0  0  0  0  0  0  0  0
   22.5866   19.5200   65.1339 O   0  0  0  0  0  0  0  0  0  0  0  0
   26.9651   17.7053   65.3314 O   0  0  0  0  0  0  0  0  0  0  0  0
   27.5471   16.7430   62.7535 C   0  0  1  0  0  0  0  0  0  0  0  0
   27.4751   15.8687   61.5818 N   0  0  0  0  0  0  0  0  0  0  0  0
   27.6511   14.4545   61.6643 C   0  0  0  0  0  0  0  0  0  0  0  0
   27.8011   13.8881   62.7785 O   0  0  0  0  0  0  0  0  0  0  0  0
   27.6654   13.6425   60.4154 C   0  0  0  0  0  0  0  0  0  0  0  0
   28.6555   17.8225   62.5276 C   0  0  0  0  0  0  0  0  0  0  0  0
   24.6149   15.7090   62.0026 N   0  0  0  0  0  0  0  0  0  0  0  0
   24.2925   14.3222   61.8747 C   0  0  0  0  0  0  0  0  0  0  0  0
   24.0523   13.8356   60.6986 N   0  0  0  0  0  0  0  0  0  0  0  0
   24.2163   13.4669   63.0166 N   0  0  0  0  0  0  0  0  0  0  0  0
   30.0574   17.1534   62.4339 C   0  0  0  0  0  0  0  0  0  0  0  0
   28.4000   18.6893   61.2513 C   0  0  0  0  0  0  0  0  0  0  0  0
   29.6848   19.2650   60.6530 C   0  0  0  0  0  0  0  0  0  0  0  0
   30.5146   16.4787   63.7322 C   0  0  0  0  0  0  0  0  0  0  0  0
   23.4022   17.7575   63.0659 H   0  0  0  0  0  0  0  0  0  0  0  0
   23.1592   16.5302   64.3828 H   0  0  0  0  0  0  0  0  0  0  0  0
   25.3839   15.5652   63.9982 H   0  0  0  0  0  0  0  0  0  0  0  0
   25.8209   17.9912   62.2250 H   0  0  0  0  0  0  0  0  0  0  0  0
   26.3939   19.2388   64.0680 H   0  0  0  0  0  0  0  0  0  0  0  0
   24.6202   17.6058   65.8510 H   0  0  0  0  0  0  0  0  0  0  0  0
   22.1263   20.4104   65.2811 H   0  0  0  0  0  0  0  0  0  0  0  0
   27.0552   18.4206   66.0138 H   0  0  0  0  0  0  0  0  0  0  0  0
   27.8275   16.1449   63.6434 H   0  0  0  0  0  0  0  0  0  0  0  0
   27.2391   16.2848   60.6527 H   0  0  0  0  0  0  0  0  0  0  0  0
   26.8253   13.9475   59.7572 H   0  0  0  0  0  0  0  0  0  0  0  0
   28.6248   13.8045   59.8817 H   0  0  0  0  0  0  0  0  0  0  0  0
   27.5579   12.5626   60.6518 H   0  0  0  0  0  0  0  0  0  0  0  0
   28.6657   18.4959   63.4119 H   0  0  0  0  0  0  0  0  0  0  0  0
   24.4897   16.3215   61.1641 H   0  0  0  0  0  0  0  0  0  0  0  0
   23.8085   12.8300   60.5567 H   0  0  0  0  0  0  0  0  0  0  0  0
   24.1212   12.4342   62.8935 H   0  0  0  0  0  0  0  0  0  0  0  0
   24.1110   13.8405   63.9839 H   0  0  0  0  0  0  0  0  0  0  0  0
   30.8125   17.9297   62.1873 H   0  0  0  0  0  0  0  0  0  0  0  0
   30.0799   16.4075   61.6101 H   0  0  0  0  0  0  0  0  0  0  0  0
   27.8876   18.0806   60.4742 H   0  0  0  0  0  0  0  0  0  0  0  0
   27.7367   19.5492   61.4450 H   0  0  0  0  0  0  0  0  0  0  0  0
   30.3658   18.4427   60.3464 H   0  0  0  0  0  0  0  0  0  0  0  0
   30.2028   19.8884   61.4122 H   0  0  0  0  0  0  0  0  0  0  0  0
   29.4597   19.9005   59.7720 H   0  0  0  0  0  0  0  0  0  0  0  0
   29.9667   15.5259   63.8917 H   0  0  0  0  0  0  0  0  0  0  0  0
   31.6063   16.2844   63.7163 H   0  0  0  0  0  0  0  0  0  0  0  0
   30.3066   17.1522   64.5903 H   0  0  0  0  0  0  0  0  0  0  0  0
  2  1  1  0
  3  2  1  0
  4  3  1  0
  5  4  1  0
  5  1  1  0
  5  6  1  0
  7  6  2  0
  8  6  1  0
  4  9  1  0
 10  3  1  0
 10 11  1  0
 12 11  1  0
 13 12  2  0
 14 12  1  0
 15 10  1  0
  2 16  1  0
 17 16  1  0
 18 17  2  3
 19 17  1  0
 15 20  1  0
 21 15  1  0
 22 21  1  0
 23 20  1  0
  1 24  1  0
  1 25  1  0
  2 26  1  1
  3 27  1  6
  4 28  1  6
  5 29  1  1
  8 30  1  0
  9 31  1  0
 10 32  1  1
 11 33  1  0
 14 34  1  0
 14 35  1  0
 14 36  1  0
 15 37  1  0
 16 38  1  0
 18 39  1  0
 19 40  1  0
 19 41  1  0
 20 42  1  0
 20 43  1  0
 21 44  1  0
 21 45  1  0
 22 46  1  0
 22 47  1  0
 22 48  1  0
 23 49  1  0
 23 50  1  0
 23 51  1  0
M  END
