
     RDKit          3D

 29 30  0  0  0  0  0  0  0  0999 V2000
   47.8306   61.5914   97.4584 C   0  0  0  0  0  0  0  0  0  0  0  0
   47.2356   61.0563   98.6105 O   0  0  0  0  0  0  0  0  0  0  0  0
   48.6890   62.8269   97.7886 C   0  0  1  0  0  0  0  0  0  0  0  0
   47.8506   63.9255   98.0851 O   0  0  0  0  0  0  0  0  0  0  0  0
   49.6577   62.6037   98.9600 C   0  0  1  0  0  0  0  0  0  0  0  0
   50.9138   63.1487   98.6299 O   0  0  0  0  0  0  0  0  0  0  0  0
   49.0107   63.3948  100.0719 C   0  0  0  0  0  0  0  0  0  0  0  0
   48.3062   64.4881   99.2963 C   0  0  2  0  0  0  0  0  0  0  0  0
   47.1845   65.0655  100.0489 N   0  0  0  0  0  0  0  0  0  0  0  0
   46.8564   64.6054  101.2974 C   0  0  0  0  0  0  0  0  0  0  0  0
   47.3918   63.5636  101.7659 O   0  0  0  0  0  0  0  0  0  0  0  0
   45.9570   65.2824  102.0530 N   0  0  0  0  0  0  0  0  0  0  0  0
   45.3552   66.4008  101.5815 C   0  0  0  0  0  0  0  0  0  0  0  0
   44.4474   67.1179  102.4035 N   0  0  0  0  0  0  0  0  0  0  0  0
   45.6140   66.8353  100.2935 C   0  0  0  0  0  0  0  0  0  0  0  0
   46.5123   66.1279   99.5238 C   0  0  0  0  0  0  0  0  0  0  0  0
   48.1174   62.5944  100.7605 F   0  0  0  0  0  0  0  0  0  0  0  0
   49.9234   63.9211  100.9598 F   0  0  0  0  0  0  0  0  0  0  0  0
   48.4796   60.8196   96.9870 H   0  0  0  0  0  0  0  0  0  0  0  0
   47.0434   61.8786   96.7258 H   0  0  0  0  0  0  0  0  0  0  0  0
   47.4237   61.6998   99.3420 H   0  0  0  0  0  0  0  0  0  0  0  0
   49.2651   63.0756   96.8690 H   0  0  0  0  0  0  0  0  0  0  0  0
   49.7597   61.5248   99.2263 H   0  0  0  0  0  0  0  0  0  0  0  0
   51.5333   62.9027   99.3657 H   0  0  0  0  0  0  0  0  0  0  0  0
   49.0441   65.2807   99.0306 H   0  0  0  0  0  0  0  0  0  0  0  0
   43.4469   67.2364  102.1276 H   0  0  0  0  0  0  0  0  0  0  0  0
   44.7730   67.5400  103.3014 H   0  0  0  0  0  0  0  0  0  0  0  0
   45.1242   67.7132   99.8906 H   0  0  0  0  0  0  0  0  0  0  0  0
   46.7272   66.4856   98.5237 H   0  0  0  0  0  0  0  0  0  0  0  0
  2  1  1  0
  3  1  1  0
  4  3  1  0
  5  3  1  0
  5  6  1  0
  7  5  1  0
  8  4  1  0
  8  7  1  0
  8  9  1  0
 10  9  1  0
 11 10  2  0
 12 10  1  0
 13 12  2  0
 14 13  1  0
 15 13  1  0
 16 15  2  0
 16  9  1  0
  7 17  1  0
 18  7  1  0
  1 19  1  0
  1 20  1  0
  2 21  1  0
  3 22  1  6
  5 23  1  1
  6 24  1  0
  8 25  1  6
 14 26  1  0
 14 27  1  0
 15 28  1  0
 16 29  1  0
M  END
