
     RDKit          3D

 29 30  0  0  0  0  0  0  0  0999 V2000
   34.6408   96.6020   96.7252 C   0  0  0  0  0  0  0  0  0  0  0  0
   33.7926   96.5918   95.6050 O   0  0  0  0  0  0  0  0  0  0  0  0
   36.0903   96.2810   96.3353 C   0  0  1  0  0  0  0  0  0  0  0  0
   36.2463   94.8865   96.1808 O   0  0  0  0  0  0  0  0  0  0  0  0
   36.5253   96.9921   95.0440 C   0  0  1  0  0  0  0  0  0  0  0  0
   37.7706   97.6112   95.2549 O   0  0  0  0  0  0  0  0  0  0  0  0
   36.6586   95.8537   94.0648 C   0  0  0  0  0  0  0  0  0  0  0  0
   36.9516   94.6848   94.9831 C   0  0  2  0  0  0  0  0  0  0  0  0
   36.5826   93.3933   94.3917 N   0  0  0  0  0  0  0  0  0  0  0  0
   37.5408   92.4464   94.1576 C   0  0  0  0  0  0  0  0  0  0  0  0
   38.7644   92.7160   94.3026 O   0  0  0  0  0  0  0  0  0  0  0  0
   37.1806   91.1962   93.7841 N   0  0  0  0  0  0  0  0  0  0  0  0
   35.8790   90.8670   93.6191 C   0  0  0  0  0  0  0  0  0  0  0  0
   35.5281   89.5368   93.2732 N   0  0  0  0  0  0  0  0  0  0  0  0
   34.8949   91.8244   93.7931 C   0  0  0  0  0  0  0  0  0  0  0  0
   35.2701   93.0985   94.1674 C   0  0  0  0  0  0  0  0  0  0  0  0
   35.4700   95.6779   93.3824 F   0  0  0  0  0  0  0  0  0  0  0  0
   37.6869   96.0576   93.1681 F   0  0  0  0  0  0  0  0  0  0  0  0
   34.2891   95.8858   97.5041 H   0  0  0  0  0  0  0  0  0  0  0  0
   34.6082   97.6168   97.1761 H   0  0  0  0  0  0  0  0  0  0  0  0
   32.8773   96.7821   95.9359 H   0  0  0  0  0  0  0  0  0  0  0  0
   36.7363   96.6050   97.1823 H   0  0  0  0  0  0  0  0  0  0  0  0
   35.7770   97.7436   94.6955 H   0  0  0  0  0  0  0  0  0  0  0  0
   37.6096   98.5909   95.2423 H   0  0  0  0  0  0  0  0  0  0  0  0
   38.0353   94.6995   95.2466 H   0  0  0  0  0  0  0  0  0  0  0  0
   34.7989   89.0146   93.8087 H   0  0  0  0  0  0  0  0  0  0  0  0
   35.9990   89.0602   92.4722 H   0  0  0  0  0  0  0  0  0  0  0  0
   33.8486   91.5831   93.6524 H   0  0  0  0  0  0  0  0  0  0  0  0
   34.4975   93.8380   94.3272 H   0  0  0  0  0  0  0  0  0  0  0  0
  2  1  1  0
  3  1  1  0
  4  3  1  0
  5  3  1  0
  5  6  1  0
  7  5  1  0
  8  7  1  0
  8  4  1  0
  8  9  1  0
 10  9  1  0
 11 10  2  0
 12 10  1  0
 13 12  2  0
 14 13  1  0
 15 13  1  0
 16 15  2  0
 16  9  1  0
  7 17  1  0
 18  7  1  0
  1 19  1  0
  1 20  1  0
  2 21  1  0
  3 22  1  1
  5 23  1  6
  6 24  1  0
  8 25  1  1
 14 26  1  0
 14 27  1  0
 15 28  1  0
 16 29  1  0
M  END
