
     RDKit          3D

 29 30  0  0  0  0  0  0  0  0999 V2000
   34.6888   96.9608   96.8019 C   0  0  0  0  0  0  0  0  0  0  0  0
   33.8407   96.9505   95.6817 O   0  0  0  0  0  0  0  0  0  0  0  0
   36.1384   96.6398   96.4120 C   0  0  1  0  0  0  0  0  0  0  0  0
   36.3639   95.2499   96.5122 O   0  0  0  0  0  0  0  0  0  0  0  0
   36.4867   97.1150   94.9925 C   0  0  1  0  0  0  0  0  0  0  0  0
   37.7035   97.8197   95.0270 O   0  0  0  0  0  0  0  0  0  0  0  0
   36.6454   95.8203   94.2367 C   0  0  0  0  0  0  0  0  0  0  0  0
   37.0347   94.8596   95.3417 C   0  0  2  0  0  0  0  0  0  0  0  0
   36.7148   93.4643   95.0182 N   0  0  0  0  0  0  0  0  0  0  0  0
   36.0100   92.6981   95.9045 C   0  0  0  0  0  0  0  0  0  0  0  0
   35.7550   93.1221   97.0648 O   0  0  0  0  0  0  0  0  0  0  0  0
   35.5594   91.4764   95.5349 N   0  0  0  0  0  0  0  0  0  0  0  0
   35.8107   90.9863   94.2994 C   0  0  0  0  0  0  0  0  0  0  0  0
   35.2861   89.7232   93.9234 N   0  0  0  0  0  0  0  0  0  0  0  0
   36.5721   91.7188   93.4055 C   0  0  0  0  0  0  0  0  0  0  0  0
   37.0336   92.9606   93.7916 C   0  0  0  0  0  0  0  0  0  0  0  0
   35.4439   95.4645   93.6544 F   0  0  0  0  0  0  0  0  0  0  0  0
   37.6276   95.8995   93.2713 F   0  0  0  0  0  0  0  0  0  0  0  0
   34.3371   96.2446   97.5808 H   0  0  0  0  0  0  0  0  0  0  0  0
   34.6563   97.9756   97.2528 H   0  0  0  0  0  0  0  0  0  0  0  0
   33.5027   97.8760   95.5688 H   0  0  0  0  0  0  0  0  0  0  0  0
   36.7965   97.1468   97.1534 H   0  0  0  0  0  0  0  0  0  0  0  0
   35.6864   97.7521   94.5453 H   0  0  0  0  0  0  0  0  0  0  0  0
   37.9285   98.0496   94.0876 H   0  0  0  0  0  0  0  0  0  0  0  0
   38.1250   94.9737   95.5476 H   0  0  0  0  0  0  0  0  0  0  0  0
   35.9163   88.9117   93.7349 H   0  0  0  0  0  0  0  0  0  0  0  0
   34.2548   89.5890   93.8298 H   0  0  0  0  0  0  0  0  0  0  0  0
   36.7950   91.3373   92.4168 H   0  0  0  0  0  0  0  0  0  0  0  0
   37.6069   93.5416   93.0822 H   0  0  0  0  0  0  0  0  0  0  0  0
  2  1  1  0
  3  1  1  0
  4  3  1  0
  5  3  1  0
  5  6  1  0
  7  5  1  0
  8  7  1  0
  8  4  1  0
  8  9  1  0
 10  9  1  0
 11 10  2  0
 12 10  1  0
 13 12  2  0
 14 13  1  0
 15 13  1  0
 16 15  2  0
 16  9  1  0
  7 17  1  0
 18  7  1  0
  1 19  1  0
  1 20  1  0
  2 21  1  0
  3 22  1  1
  5 23  1  6
  6 24  1  0
  8 25  1  1
 14 26  1  0
 14 27  1  0
 15 28  1  0
 16 29  1  0
M  END
