
     RDKit          3D

 75 82  0  0  0  0  0  0  0  0999 V2000
   22.0595    3.1182   47.6471 C   0  0  0  0  0  0  0  0  0  0  0  0
   19.5226    2.0278   38.1298 C   0  0  0  0  0  0  0  0  0  0  0  0
   26.9983   -0.3890   38.7395 C   0  0  0  0  0  0  0  0  0  0  0  0
   27.0324    1.4142   46.4844 C   0  0  0  0  0  0  0  0  0  0  0  0
   22.3648    2.4128   43.9616 N   0  0  0  0  0  0  0  0  0  0  0  0
   21.6289    1.9146   48.4967 C   0  0  0  0  0  0  0  0  0  0  0  0
   18.4615    2.6888   37.6633 C   0  0  0  0  0  0  0  0  0  0  0  0
   27.1325   -1.4314   37.9207 C   0  0  0  0  0  0  0  0  0  0  0  0
   27.5702    2.7991   46.8752 C   0  0  0  0  0  0  0  0  0  0  0  0
   21.5499    2.0582   41.2247 N   0  0  0  0  0  0  0  0  0  0  0  0
   21.8346    2.1551   49.9679 C   0  0  0  0  0  0  0  0  0  0  0  0
   27.8987    2.8824   48.3378 C   0  0  0  0  0  0  0  0  0  0  0  0
   25.0017    1.5327   43.3489 N   0  0  0  0  0  0  0  0  0  0  0  0
   24.2706    2.2896   45.4987 C   0  0  0  0  0  0  0  0  0  0  0  0
   20.0529    2.6562   43.1256 C   0  0  0  0  0  0  0  0  0  0  0  0
   22.4376    1.4417   38.9808 C   0  0  0  0  0  0  0  0  0  0  0  0
   26.3311    0.4259   41.6920 C   0  0  0  0  0  0  0  0  0  0  0  0
   19.3204    3.2778   46.0712 C   0  0  0  0  0  0  0  0  0  0  0  0
   17.9360    2.8765   40.8024 C   0  0  0  0  0  0  0  0  0  0  0  0
   24.5080    0.3545   36.9439 C   0  0  0  0  0  0  0  0  0  0  0  0
   28.5070    0.3693   43.8766 C   0  0  0  0  0  0  0  0  0  0  0  0
   22.8619    2.5343   45.1601 C   0  0  0  0  0  0  0  0  0  0  0  0
   20.3298    2.3882   41.7032 C   0  0  0  0  0  0  0  0  0  0  0  0
   23.6658    1.0528   39.3462 C   0  0  0  0  0  0  0  0  0  0  0  0
   26.1422    0.9262   42.9287 C   0  0  0  0  0  0  0  0  0  0  0  0
   21.5520    1.2690   50.8171 O   0  0  0  0  0  0  0  0  0  0  0  0
   28.5298    1.9480   48.8979 O   0  0  0  0  0  0  0  0  0  0  0  0
   21.8384    2.8824   46.1644 C   0  0  0  0  0  0  0  0  0  0  0  0
   19.3826    2.4642   40.6766 C   0  0  0  0  0  0  0  0  0  0  0  0
   24.6458    0.4639   38.4382 C   0  0  0  0  0  0  0  0  0  0  0  0
   27.0901    0.8750   43.9566 C   0  0  0  0  0  0  0  0  0  0  0  0
   22.3840    3.3497   50.3995 O   0  0  0  0  0  0  0  0  0  0  0  0
   27.5609    4.0102   49.0661 O   0  0  0  0  0  0  0  0  0  0  0  0
   20.6782    2.9565   45.5111 C   0  0  0  0  0  0  0  0  0  0  0  0
   20.0617    2.1522   39.5084 C   0  0  0  0  0  0  0  0  0  0  0  0
   25.6891    0.1224   39.1935 C   0  0  0  0  0  0  0  0  0  0  0  0
   26.4770    1.3999   45.0755 C   0  0  0  0  0  0  0  0  0  0  0  0
   20.9687    2.6638   44.1087 C   0  0  0  0  0  0  0  0  0  0  0  0
   21.3763    1.8826   39.8964 C   0  0  0  0  0  0  0  0  0  0  0  0
   25.3796    0.5451   40.5718 C   0  0  0  0  0  0  0  0  0  0  0  0
   25.2010    1.7943   44.6666 C   0  0  0  0  0  0  0  0  0  0  0  0
   24.2056    1.1003   40.6657 N   0  0  0  0  0  0  0  0  0  0  0  0
   23.3115    1.9736   42.2592 Mn  0  0  1  0  0  4  0  0  0  0  0  0
   21.4752    4.0138   47.9493 H   0  0  0  0  0  0  0  0  0  0  0  0
   23.1176    3.3679   47.8578 H   0  0  0  0  0  0  0  0  0  0  0  0
   20.0050    1.3376   37.4515 H   0  0  0  0  0  0  0  0  0  0  0  0
   27.8938    0.0404   39.1700 H   0  0  0  0  0  0  0  0  0  0  0  0
   26.2293    1.0923   47.1805 H   0  0  0  0  0  0  0  0  0  0  0  0
   27.8438    0.6629   46.5869 H   0  0  0  0  0  0  0  0  0  0  0  0
   22.2238    1.0271   48.1903 H   0  0  0  0  0  0  0  0  0  0  0  0
   20.5555    1.6896   48.3230 H   0  0  0  0  0  0  0  0  0  0  0  0
   17.9623    3.4556   38.2342 H   0  0  0  0  0  0  0  0  0  0  0  0
   18.1260    2.5150   36.6491 H   0  0  0  0  0  0  0  0  0  0  0  0
   28.1188   -1.7918   37.6591 H   0  0  0  0  0  0  0  0  0  0  0  0
   26.2657   -1.9403   37.5185 H   0  0  0  0  0  0  0  0  0  0  0  0
   26.8094    3.5763   46.6480 H   0  0  0  0  0  0  0  0  0  0  0  0
   28.4818    3.0200   46.2786 H   0  0  0  0  0  0  0  0  0  0  0  0
   24.5524    2.4528   46.5251 H   0  0  0  0  0  0  0  0  0  0  0  0
   19.0350    2.8863   43.3999 H   0  0  0  0  0  0  0  0  0  0  0  0
   22.1805    1.3580   37.9359 H   0  0  0  0  0  0  0  0  0  0  0  0
   27.2627   -0.0798   41.4793 H   0  0  0  0  0  0  0  0  0  0  0  0
   19.3562    3.4836   47.1593 H   0  0  0  0  0  0  0  0  0  0  0  0
   18.6383    2.4195   45.8991 H   0  0  0  0  0  0  0  0  0  0  0  0
   18.9131    4.1752   45.5609 H   0  0  0  0  0  0  0  0  0  0  0  0
   17.5410    2.6696   41.8152 H   0  0  0  0  0  0  0  0  0  0  0  0
   17.8341    3.9608   40.5899 H   0  0  0  0  0  0  0  0  0  0  0  0
   17.3056    2.2861   40.1070 H   0  0  0  0  0  0  0  0  0  0  0  0
   23.9161    1.2075   36.5525 H   0  0  0  0  0  0  0  0  0  0  0  0
   23.9973   -0.5967   36.6880 H   0  0  0  0  0  0  0  0  0  0  0  0
   25.4975    0.3853   36.4445 H   0  0  0  0  0  0  0  0  0  0  0  0
   28.5147   -0.7333   44.0008 H   0  0  0  0  0  0  0  0  0  0  0  0
   28.9570    0.6341   42.8977 H   0  0  0  0  0  0  0  0  0  0  0  0
   29.1382    0.8326   44.6624 H   0  0  0  0  0  0  0  0  0  0  0  0
   22.7669    4.0188   49.7421 H   0  0  0  0  0  0  0  0  0  0  0  0
   28.1537    4.3416   49.8177 H   0  0  0  0  0  0  0  0  0  0  0  0
  6  1  1  0
  7  2  2  0
  8  3  2  0
  9  4  1  0
 11  6  1  0
 12  9  1  0
 22 14  1  0
 22  5  2  0
 23 15  1  0
 23 10  1  0
 24 16  2  0
 25 17  2  0
 25 13  1  0
 26 11  2  0
 27 12  2  0
 28 22  1  0
 28  1  1  0
 29 23  2  0
 29 19  1  0
 30 24  1  0
 30 20  1  0
 31 25  1  0
 31 21  1  0
 32 11  1  0
 33 12  1  0
 34 18  1  0
 34 28  2  0
 35 29  1  0
 35  2  1  0
 36 30  2  0
 36  3  1  0
 37 31  2  0
 37  4  1  0
 38 34  1  0
 38 15  2  0
 38  5  1  0
 39 35  2  0
 39 16  1  0
 39 10  1  0
 40 36  1  0
 40 17  1  0
 41 37  1  0
 41 14  2  0
 41 13  1  0
 42 40  2  0
 42 24  1  0
 43 42  1  0
 43 10  1  0
 43 13  1  0
 43  5  1  0
  1 44  1  0
  1 45  1  0
  2 46  1  0
  3 47  1  0
  4 48  1  0
  4 49  1  0
  6 50  1  0
  6 51  1  0
  7 52  1  0
  7 53  1  0
  8 54  1  0
  8 55  1  0
  9 56  1  0
  9 57  1  0
 14 58  1  0
 15 59  1  0
 16 60  1  0
 17 61  1  0
 18 62  1  0
 18 63  1  0
 18 64  1  0
 19 65  1  0
 19 66  1  0
 19 67  1  0
 20 68  1  0
 20 69  1  0
 20 70  1  0
 21 71  1  0
 21 72  1  0
 21 73  1  0
 32 74  1  0
 33 75  1  0
M  CHG  3   5   1  42   1  43   3
M  END
