
     RDKit          3D

 79 83  0  0  0  0  0  0  0  0999 V2000
   28.2956   -3.1540   33.9843 C   0  0  0  0  0  0  0  0  0  0  0  0
   29.7914   -3.4568   34.0566 C   0  0  0  0  0  0  0  0  0  0  0  0
   30.4240   -2.8144   35.2679 C   0  0  0  0  0  0  0  0  0  0  0  0
   30.9308   -3.4788   36.3845 C   0  0  0  0  0  0  0  0  0  0  0  0
   31.4414   -2.5931   37.2860 N   0  0  0  0  0  0  0  0  0  0  0  0
   32.3130   -3.0457   38.4008 C   0  0  0  0  0  0  0  0  0  0  0  0
   32.0665   -2.4516   39.8016 C   0  0  0  0  0  0  0  0  0  0  0  0
   31.6729   -0.7187   39.7802 S   0  0  0  0  0  0  0  0  0  0  0  0
   32.1276   -0.0192   41.0276 O   0  0  0  0  0  0  0  0  0  0  0  0
   30.1838   -0.6214   39.6709 O   0  0  0  0  0  0  0  0  0  0  0  0
   32.3784    0.0573   38.4281 N   0  0  0  0  0  0  0  0  0  0  0  0
   33.7377    0.5822   38.4950 C   0  0  0  0  0  0  0  0  0  0  0  0
   31.7152   -0.0746   37.1764 C   0  0  0  0  0  0  0  0  0  0  0  0
   31.4288    1.0739   36.4022 C   0  0  0  0  0  0  0  0  0  0  0  0
   30.7614    0.9547   35.1674 C   0  0  0  0  0  0  0  0  0  0  0  0
   30.3718   -0.3283   34.6951 C   0  0  0  0  0  0  0  0  0  0  0  0
   30.6535   -1.4574   35.4905 C   0  0  0  0  0  0  0  0  0  0  0  0
   31.2926   -1.3485   36.7112 C   0  0  0  0  0  0  0  0  0  0  0  0
   30.5026    2.1632   34.3657 C   0  0  0  0  0  0  0  0  0  0  0  0
   31.4636    2.8564   33.9331 O   0  0  0  0  0  0  0  0  0  0  0  0
   29.1562    2.5010   34.0364 N   0  0  0  0  0  0  0  0  0  0  0  0
   28.8028    3.3860   32.9340 C   0  0  1  0  0  0  0  0  0  0  0  0
   27.7247    2.6846   32.0698 C   0  0  0  0  0  0  0  0  0  0  0  0
   28.0672    1.2321   31.7483 C   0  0  0  0  0  0  0  0  0  0  0  0
   29.3990    0.7619   31.8215 C   0  0  0  0  0  0  0  0  0  0  0  0
   29.6977   -0.5750   31.5179 C   0  0  0  0  0  0  0  0  0  0  0  0
   28.6771   -1.4501   31.1189 C   0  0  0  0  0  0  0  0  0  0  0  0
   27.3554   -0.9941   31.0282 C   0  0  0  0  0  0  0  0  0  0  0  0
   27.0503    0.3396   31.3398 C   0  0  0  0  0  0  0  0  0  0  0  0
   28.3097    4.7368   33.5133 C   0  0  2  0  0  0  0  0  0  0  0  0
   27.7888    5.5443   32.4866 O   0  0  0  0  0  0  0  0  0  0  0  0
   29.4352    5.4967   34.2583 C   0  0  0  0  0  0  0  0  0  0  0  0
   28.9450    6.7963   34.7632 N   0  0  0  0  0  0  0  0  0  0  0  0
   30.0277    7.7645   35.0083 C   0  0  0  0  0  0  0  0  0  0  0  0
   30.5168    8.4528   33.7379 C   0  0  0  0  0  0  0  0  0  0  0  0
   31.8655    8.3285   33.3464 C   0  0  0  0  0  0  0  0  0  0  0  0
   32.3248    8.9435   32.1736 C   0  0  0  0  0  0  0  0  0  0  0  0
   31.4472    9.6930   31.3777 C   0  0  0  0  0  0  0  0  0  0  0  0
   30.0942    9.8412   31.7526 C   0  0  0  0  0  0  0  0  0  0  0  0
   29.6385    9.2147   32.9346 C   0  0  0  0  0  0  0  0  0  0  0  0
   29.1200   10.6274   30.8956 C   0  0  0  0  0  0  0  0  0  0  0  0
   28.4217   11.5326   31.6701 F   0  0  0  0  0  0  0  0  0  0  0  0
   28.2153    9.7642   30.3135 F   0  0  0  0  0  0  0  0  0  0  0  0
   29.7687   11.3269   29.8955 F   0  0  0  0  0  0  0  0  0  0  0  0
   28.1169   -2.0625   33.8934 H   0  0  0  0  0  0  0  0  0  0  0  0
   27.7845   -3.5328   34.8949 H   0  0  0  0  0  0  0  0  0  0  0  0
   27.8589   -3.6564   33.0957 H   0  0  0  0  0  0  0  0  0  0  0  0
   29.9388   -4.5576   34.0945 H   0  0  0  0  0  0  0  0  0  0  0  0
   30.2898   -3.0754   33.1406 H   0  0  0  0  0  0  0  0  0  0  0  0
   30.9627   -4.5549   36.5025 H   0  0  0  0  0  0  0  0  0  0  0  0
   33.3630   -2.8163   38.1174 H   0  0  0  0  0  0  0  0  0  0  0  0
   32.2600   -4.1527   38.4978 H   0  0  0  0  0  0  0  0  0  0  0  0
   31.2244   -2.9937   40.2819 H   0  0  0  0  0  0  0  0  0  0  0  0
   32.9701   -2.6083   40.4284 H   0  0  0  0  0  0  0  0  0  0  0  0
   33.9534    0.9358   39.5255 H   0  0  0  0  0  0  0  0  0  0  0  0
   34.4606   -0.2144   38.2225 H   0  0  0  0  0  0  0  0  0  0  0  0
   33.8716    1.4364   37.7991 H   0  0  0  0  0  0  0  0  0  0  0  0
   31.7261    2.0501   36.7661 H   0  0  0  0  0  0  0  0  0  0  0  0
   29.8903   -0.4421   33.7332 H   0  0  0  0  0  0  0  0  0  0  0  0
   28.3852    2.0991   34.6182 H   0  0  0  0  0  0  0  0  0  0  0  0
   29.6897    3.5781   32.2905 H   0  0  0  0  0  0  0  0  0  0  0  0
   27.6044    3.2357   31.1125 H   0  0  0  0  0  0  0  0  0  0  0  0
   26.7494    2.7317   32.6028 H   0  0  0  0  0  0  0  0  0  0  0  0
   30.2033    1.4255   32.1093 H   0  0  0  0  0  0  0  0  0  0  0  0
   30.7181   -0.9295   31.5843 H   0  0  0  0  0  0  0  0  0  0  0  0
   28.9102   -2.4803   30.8831 H   0  0  0  0  0  0  0  0  0  0  0  0
   26.5692   -1.6721   30.7224 H   0  0  0  0  0  0  0  0  0  0  0  0
   26.0233    0.6743   31.2662 H   0  0  0  0  0  0  0  0  0  0  0  0
   27.4894    4.5370   34.2375 H   0  0  0  0  0  0  0  0  0  0  0  0
   27.5705    4.9517   31.7195 H   0  0  0  0  0  0  0  0  0  0  0  0
   29.7836    4.8945   35.1239 H   0  0  0  0  0  0  0  0  0  0  0  0
   30.2923    5.6198   33.5619 H   0  0  0  0  0  0  0  0  0  0  0  0
   28.2686    7.2362   34.0991 H   0  0  0  0  0  0  0  0  0  0  0  0
   29.6598    8.5439   35.7097 H   0  0  0  0  0  0  0  0  0  0  0  0
   30.8654    7.2465   35.5250 H   0  0  0  0  0  0  0  0  0  0  0  0
   32.5594    7.7496   33.9429 H   0  0  0  0  0  0  0  0  0  0  0  0
   33.3608    8.8356   31.8791 H   0  0  0  0  0  0  0  0  0  0  0  0
   31.8265   10.1488   30.4724 H   0  0  0  0  0  0  0  0  0  0  0  0
   28.6017    9.3233   33.2278 H   0  0  0  0  0  0  0  0  0  0  0  0
  2  1  1  0
  3  2  1  0
  4  3  2  0
  5  4  1  0
  6  5  1  0
  7  6  1  0
  8  7  1  0
  9  8  2  0
 10  8  2  0
 11  8  1  0
 12 11  1  0
 13 11  1  0
 14 13  1  0
 15 14  2  0
 16 15  1  0
 17 16  2  0
 17  3  1  0
 18 17  1  0
 18 13  2  0
 18  5  1  0
 19 15  1  0
 20 19  2  0
 21 19  1  0
 22 21  1  0
 22 23  1  0
 24 23  1  0
 25 24  2  0
 26 25  1  0
 27 26  2  0
 28 27  1  0
 29 28  2  0
 29 24  1  0
 30 22  1  0
 30 31  1  0
 32 30  1  0
 33 32  1  0
 34 33  1  0
 35 34  1  0
 36 35  2  0
 37 36  1  0
 38 37  2  0
 39 38  1  0
 40 39  2  0
 40 35  1  0
 41 39  1  0
 41 42  1  0
 43 41  1  0
 44 41  1  0
  1 45  1  0
  1 46  1  0
  1 47  1  0
  2 48  1  0
  2 49  1  0
  4 50  1  0
  6 51  1  0
  6 52  1  0
  7 53  1  0
  7 54  1  0
 12 55  1  0
 12 56  1  0
 12 57  1  0
 14 58  1  0
 16 59  1  0
 21 60  1  0
 22 61  1  6
 23 62  1  0
 23 63  1  0
 25 64  1  0
 26 65  1  0
 27 66  1  0
 28 67  1  0
 29 68  1  0
 30 69  1  1
 31 70  1  0
 32 71  1  0
 32 72  1  0
 33 73  1  0
 34 74  1  0
 34 75  1  0
 36 76  1  0
 37 77  1  0
 38 78  1  0
 40 79  1  0
M  END
