
     RDKit          3D

 32 34  0  0  0  0  0  0  0  0999 V2000
  -49.6264    4.2269   23.9677 C   0  0  0  0  0  0  0  0  0  0  0  0
  -48.8244    3.8171   26.2168 C   0  0  0  0  0  0  0  0  0  0  0  0
  -49.7884    2.8536   23.7705 C   0  0  0  0  0  0  0  0  0  0  0  0
  -48.9755    2.4352   26.0136 C   0  0  0  0  0  0  0  0  0  0  0  0
  -49.1596   10.5991   23.3067 C   0  0  0  0  0  0  0  0  0  0  0  0
  -48.9101    9.1172   23.0912 C   0  0  0  0  0  0  0  0  0  0  0  0
  -48.3086   10.3976   25.8334 C   0  0  0  0  0  0  0  0  0  0  0  0
  -49.1519    4.7275   25.1929 C   0  0  0  0  0  0  0  0  0  0  0  0
  -49.4684    1.9392   24.7900 C   0  0  0  0  0  0  0  0  0  0  0  0
  -49.6094    0.4451   24.5668 C   0  0  0  0  0  0  0  0  0  0  0  0
  -47.8081   11.2750   24.3096 S   0  0  0  0  0  0  0  0  0  0  0  0
  -48.7517    6.7174   26.5945 N   0  0  0  0  0  0  0  0  0  0  0  0
  -48.9722    6.1857   25.3685 C   0  0  0  0  0  0  0  0  0  0  0  0
  -49.0256    7.0011   24.2872 N   0  0  0  0  0  0  0  0  0  0  0  0
  -48.8486    8.3403   24.3794 C   0  0  0  0  0  0  0  0  0  0  0  0
  -48.5320    8.9105   25.6359 C   0  0  0  0  0  0  0  0  0  0  0  0
  -48.5391    8.0477   26.7517 C   0  0  0  0  0  0  0  0  0  0  0  0
  -48.3460    8.5449   28.0311 O   0  0  0  0  0  0  0  0  0  0  0  0
  -49.6206    0.1760   23.2147 F   0  0  0  0  0  0  0  0  0  0  0  0
  -48.5579   -0.2324   25.1456 F   0  0  0  0  0  0  0  0  0  0  0  0
  -50.7760   -0.0475   25.1162 F   0  0  0  0  0  0  0  0  0  0  0  0
  -49.8849    4.8977   23.1576 H   0  0  0  0  0  0  0  0  0  0  0  0
  -48.4412    4.1700   27.1661 H   0  0  0  0  0  0  0  0  0  0  0  0
  -50.1567    2.5110   22.8121 H   0  0  0  0  0  0  0  0  0  0  0  0
  -48.7091    1.7508   26.8094 H   0  0  0  0  0  0  0  0  0  0  0  0
  -50.1393   10.7665   23.8048 H   0  0  0  0  0  0  0  0  0  0  0  0
  -49.1706   11.1182   22.3252 H   0  0  0  0  0  0  0  0  0  0  0  0
  -47.9540    8.9777   22.5417 H   0  0  0  0  0  0  0  0  0  0  0  0
  -49.7283    8.7112   22.4574 H   0  0  0  0  0  0  0  0  0  0  0  0
  -47.5102   10.5608   26.5877 H   0  0  0  0  0  0  0  0  0  0  0  0
  -49.2446   10.8544   26.2188 H   0  0  0  0  0  0  0  0  0  0  0  0
  -47.5720    8.2285   28.6031 H   0  0  0  0  0  0  0  0  0  0  0  0
  3  1  2  0
  4  2  1  0
  6  5  1  0
  8  2  2  0
  8  1  1  0
  9  3  1  0
  9  4  2  0
 10  9  1  0
 11  7  1  0
 11  5  1  0
 13  8  1  0
 13 12  1  0
 14 13  2  0
 15 14  1  0
 15  6  1  0
 16 15  2  0
 16  7  1  0
 17 16  1  0
 17 12  2  0
 18 17  1  0
 10 19  1  0
 20 10  1  0
 21 10  1  0
  1 22  1  0
  2 23  1  0
  3 24  1  0
  4 25  1  0
  5 26  1  0
  5 27  1  0
  6 28  1  0
  6 29  1  0
  7 30  1  0
  7 31  1  0
 18 32  1  0
M  END
