
     RDKit          3D

 72 76  0  0  0  0  0  0  0  0999 V2000
    2.7896   17.1505   23.8179 P   0  0  2  0  0  0  0  0  0  0  0  0
    1.6496   19.6875   23.7525 P   0  0  2  0  0  0  0  0  0  0  0  0
    2.3439   22.1312   20.0949 P   0  0  1  0  0  0  0  0  0  0  0  0
    3.6056   21.0718   22.3477 P   0  0  2  0  0  0  0  0  0  0  0  0
    0.8787   16.0987   25.1374 C   0  0  0  0  0  0  0  0  0  0  0  0
    1.4543   16.1362   23.8566 O   0  0  0  0  0  0  0  0  0  0  0  0
   -0.2586   15.0924   25.0474 C   0  0  1  0  0  0  0  0  0  0  0  0
   -1.1561   15.4932   24.0363 O   0  0  0  0  0  0  0  0  0  0  0  0
    0.2268   13.7078   24.6375 C   0  0  1  0  0  0  0  0  0  0  0  0
    0.7247   12.9934   25.7378 O   0  0  0  0  0  0  0  0  0  0  0  0
   -1.0222   13.0947   24.0259 C   0  0  1  0  0  0  0  0  0  0  0  0
   -1.6905   12.2972   24.9777 O   0  0  0  0  0  0  0  0  0  0  0  0
   -1.8688   14.3318   23.6811 C   0  0  2  0  0  0  0  0  0  0  0  0
    7.5065   25.8114   15.9366 N   0  0  0  0  0  0  0  0  0  0  0  0
   -3.8633   16.9899   19.5148 N   0  0  0  0  0  0  0  0  0  0  0  0
    3.1378   17.3517   22.3621 O   0  0  0  0  0  0  0  0  0  0  0  0
    0.4328   20.1923   24.4854 O   0  0  0  0  0  0  0  0  0  0  0  0
    1.1992   23.1024   19.9703 O   0  0  0  0  0  0  0  0  0  0  0  0
    3.6110   19.8264   21.4903 O   0  0  0  0  0  0  0  0  0  0  0  0
    7.5495   25.6628   14.5958 C   0  0  0  0  0  0  0  0  0  0  0  0
   -3.6513   17.4911   20.7736 C   0  0  0  0  0  0  0  0  0  0  0  0
    8.2617   26.6090   13.8113 N   0  0  0  0  0  0  0  0  0  0  0  0
    4.1028   16.4632   24.5995 O   0  0  0  0  0  0  0  0  0  0  0  0
    1.1742   19.1161   22.2564 O   0  0  0  0  0  0  0  0  0  0  0  0
    1.7371   20.5904   19.9413 O   0  0  0  0  0  0  0  0  0  0  0  0
    5.1586   21.3917   22.8883 O   0  0  0  0  0  0  0  0  0  0  0  0
    6.9132   24.6112   14.0034 N   0  0  0  0  0  0  0  0  0  0  0  0
   -3.1499   16.6965   21.7797 N   0  0  0  0  0  0  0  0  0  0  0  0
    2.4240   18.5371   24.6991 O   0  0  0  0  0  0  0  0  0  0  0  0
    2.7274   20.9695   23.7619 O   0  0  0  0  0  0  0  0  0  0  0  0
    3.3835   22.3158   18.7873 O   0  0  0  0  0  0  0  0  0  0  0  0
    3.0505   22.4654   21.5889 O   0  0  0  0  0  0  0  0  0  0  0  0
    6.2255   23.6878   14.7342 C   0  0  0  0  0  0  0  0  0  0  0  0
   -2.8755   15.3910   21.4893 C   0  0  0  0  0  0  0  0  0  0  0  0
    5.6527   22.7301   14.1381 O   0  0  0  0  0  0  0  0  0  0  0  0
   -3.0921   14.8764   20.2438 C   0  0  0  0  0  0  0  0  0  0  0  0
    5.4948   22.9060   17.0029 N   0  0  0  0  0  0  0  0  0  0  0  0
    5.4933   23.0473   18.3069 C   0  0  0  0  0  0  0  0  0  0  0  0
    4.7167   22.1155   19.1504 C   0  0  0  0  0  0  0  0  0  0  0  0
   -3.5916   15.6847   19.2212 C   0  0  0  0  0  0  0  0  0  0  0  0
   -3.8146   15.1905   17.9072 N   0  0  0  0  0  0  0  0  0  0  0  0
    6.1426   24.2126   19.0150 C   0  0  0  0  0  0  0  0  0  0  0  0
   -2.7518   13.5744   20.1941 N   0  0  0  0  0  0  0  0  0  0  0  0
   -2.3192   13.3292   21.4546 C   0  0  0  0  0  0  0  0  0  0  0  0
    6.8223   25.1149   18.1130 N   0  0  0  0  0  0  0  0  0  0  0  0
    6.8396   24.9261   16.7088 C   0  0  0  0  0  0  0  0  0  0  0  0
   -2.3525   14.4134   22.2816 N   0  0  0  0  0  0  0  0  0  0  0  0
    6.1763   23.8295   16.1397 C   0  0  0  0  0  0  0  0  0  0  0  0
    1.6146   15.7634   25.9034 H   0  0  0  0  0  0  0  0  0  0  0  0
    0.4562   17.0900   25.4145 H   0  0  0  0  0  0  0  0  0  0  0  0
   -0.7905   15.0518   26.0268 H   0  0  0  0  0  0  0  0  0  0  0  0
    1.0088   13.7717   23.8450 H   0  0  0  0  0  0  0  0  0  0  0  0
    1.1217   12.1593   25.3741 H   0  0  0  0  0  0  0  0  0  0  0  0
   -0.7573   12.4892   23.1301 H   0  0  0  0  0  0  0  0  0  0  0  0
   -2.3855   11.7923   24.4801 H   0  0  0  0  0  0  0  0  0  0  0  0
   -2.7677   14.3086   24.3424 H   0  0  0  0  0  0  0  0  0  0  0  0
   -3.8768   18.5286   20.9780 H   0  0  0  0  0  0  0  0  0  0  0  0
    7.7882   27.1053   13.0240 H   0  0  0  0  0  0  0  0  0  0  0  0
    9.2646   26.8205   14.0102 H   0  0  0  0  0  0  0  0  0  0  0  0
    4.8073   17.1589   24.5698 H   0  0  0  0  0  0  0  0  0  0  0  0
    1.9989   18.7510   21.8461 H   0  0  0  0  0  0  0  0  0  0  0  0
    1.3448   20.5582   19.0323 H   0  0  0  0  0  0  0  0  0  0  0  0
    5.7406   21.2554   22.0989 H   0  0  0  0  0  0  0  0  0  0  0  0
    6.9538   24.5092   12.9636 H   0  0  0  0  0  0  0  0  0  0  0  0
    5.0146   21.0685   18.9283 H   0  0  0  0  0  0  0  0  0  0  0  0
    4.9566   22.3420   20.2088 H   0  0  0  0  0  0  0  0  0  0  0  0
   -4.0818   14.1941   17.7457 H   0  0  0  0  0  0  0  0  0  0  0  0
   -3.7130   15.8239   17.0834 H   0  0  0  0  0  0  0  0  0  0  0  0
    5.3627   24.7824   19.5644 H   0  0  0  0  0  0  0  0  0  0  0  0
    6.8777   23.8251   19.7525 H   0  0  0  0  0  0  0  0  0  0  0  0
   -1.9601   12.3551   21.7627 H   0  0  0  0  0  0  0  0  0  0  0  0
    7.3145   25.9420   18.5200 H   0  0  0  0  0  0  0  0  0  0  0  0
  6  5  1  0
  1  6  1  6
  7  5  1  0
  8  7  1  0
  9  7  1  0
  9 10  1  0
 11  9  1  0
 11 12  1  0
 13 11  1  0
 13  8  1  0
 16  1  2  0
 17  2  2  0
 18  3  2  0
 19  4  2  0
 20 14  2  0
 21 15  2  0
 22 20  1  0
 23  1  1  0
  2 24  1  6
  3 25  1  1
  4 26  1  1
 27 20  1  0
 28 21  1  0
 29  2  1  0
 29  1  1  0
 30  2  1  0
 30  4  1  0
 31  3  1  0
 32  3  1  0
 32  4  1  0
 33 27  1  0
 34 28  2  0
 35 33  2  0
 36 34  1  0
 38 37  2  0
 39 31  1  0
 39 38  1  0
 40 15  1  0
 40 36  2  0
 41 40  1  0
 42 38  1  0
 43 36  1  0
 44 43  2  0
 45 42  1  0
 46 14  1  0
 46 45  1  0
 47 34  1  0
 13 47  1  0
 47 44  1  0
 48 33  1  0
 48 46  2  0
 48 37  1  0
  5 49  1  0
  5 50  1  0
  7 51  1  1
  9 52  1  6
 10 53  1  0
 11 54  1  6
 12 55  1  0
 13 56  1  1
 21 57  1  0
 22 58  1  0
 22 59  1  0
 23 60  1  0
 24 61  1  0
 25 62  1  0
 26 63  1  0
 27 64  1  0
 39 65  1  0
 39 66  1  0
 41 67  1  0
 41 68  1  0
 42 69  1  0
 42 70  1  0
 44 71  1  0
 45 72  1  0
M  END
