
     RDKit          3D

 72 76  0  0  0  0  0  0  0  0999 V2000
    3.7545   17.5668   23.4927 P   0  0  2  0  0  0  0  0  0  0  0  0
    2.8515   20.1043   24.1897 P   0  0  2  0  0  0  0  0  0  0  0  0
    3.2727   22.7649   20.9399 P   0  0  1  0  0  0  0  0  0  0  0  0
    4.8104   21.6707   22.9961 P   0  0  2  0  0  0  0  0  0  0  0  0
    1.9298   16.2928   24.7362 C   0  0  0  0  0  0  0  0  0  0  0  0
    2.3623   16.6328   23.4437 O   0  0  0  0  0  0  0  0  0  0  0  0
    0.7202   15.3912   24.5407 C   0  0  1  0  0  0  0  0  0  0  0  0
   -0.0689   15.8928   23.4852 O   0  0  0  0  0  0  0  0  0  0  0  0
    1.1135   13.9803   24.1221 C   0  0  1  0  0  0  0  0  0  0  0  0
    1.4727   13.1986   25.2307 O   0  0  0  0  0  0  0  0  0  0  0  0
   -0.1382   13.4927   23.4109 C   0  0  1  0  0  0  0  0  0  0  0  0
   -0.9351   12.7329   24.2920 O   0  0  0  0  0  0  0  0  0  0  0  0
   -0.8514   14.8065   23.0488 C   0  0  2  0  0  0  0  0  0  0  0  0
    7.4926   27.1235   16.3922 N   0  0  0  0  0  0  0  0  0  0  0  0
    0.0065   14.1560   17.8293 N   0  0  0  0  0  0  0  0  0  0  0  0
    3.9541   18.1190   22.1012 O   0  0  0  0  0  0  0  0  0  0  0  0
    1.7477   20.4817   25.1445 O   0  0  0  0  0  0  0  0  0  0  0  0
    2.0995   23.7084   20.8931 O   0  0  0  0  0  0  0  0  0  0  0  0
    4.9642   20.5515   21.9910 O   0  0  0  0  0  0  0  0  0  0  0  0
    7.6208   26.8348   15.0799 C   0  0  0  0  0  0  0  0  0  0  0  0
    0.8656   13.8175   18.8433 C   0  0  0  0  0  0  0  0  0  0  0  0
    8.1004   27.8325   14.1896 N   0  0  0  0  0  0  0  0  0  0  0  0
    5.0930   16.6484   23.9087 O   0  0  0  0  0  0  0  0  0  0  0  0
    2.2096   19.9789   22.6525 O   0  0  0  0  0  0  0  0  0  0  0  0
    2.7055   21.2185   20.7096 O   0  0  0  0  0  0  0  0  0  0  0  0
    6.3213   22.1750   23.5150 O   0  0  0  0  0  0  0  0  0  0  0  0
    7.2916   25.5943   14.6171 N   0  0  0  0  0  0  0  0  0  0  0  0
    0.5408   14.0570   20.1594 N   0  0  0  0  0  0  0  0  0  0  0  0
    3.5885   18.6957   24.7300 O   0  0  0  0  0  0  0  0  0  0  0  0
    4.0402   21.2620   24.4178 O   0  0  0  0  0  0  0  0  0  0  0  0
    4.2797   23.0533   19.6255 O   0  0  0  0  0  0  0  0  0  0  0  0
    4.0005   23.0336   22.4370 O   0  0  0  0  0  0  0  0  0  0  0  0
    6.8318   24.6185   15.4514 C   0  0  0  0  0  0  0  0  0  0  0  0
   -0.6604   14.6484   20.4262 C   0  0  0  0  0  0  0  0  0  0  0  0
    6.5406   23.4837   14.9738 O   0  0  0  0  0  0  0  0  0  0  0  0
   -1.5201   15.0003   19.4260 C   0  0  0  0  0  0  0  0  0  0  0  0
    6.2386   23.9476   17.7945 N   0  0  0  0  0  0  0  0  0  0  0  0
    6.1539   24.2355   19.0714 C   0  0  0  0  0  0  0  0  0  0  0  0
    5.6062   23.2421   20.0182 C   0  0  0  0  0  0  0  0  0  0  0  0
   -1.1948   14.7488   18.0922 C   0  0  0  0  0  0  0  0  0  0  0  0
   -2.0702   15.0848   17.0239 N   0  0  0  0  0  0  0  0  0  0  0  0
    6.4629   25.6020   19.6353 C   0  0  0  0  0  0  0  0  0  0  0  0
   -2.6350   15.5665   19.9257 N   0  0  0  0  0  0  0  0  0  0  0  0
   -2.4137   15.5367   21.2622 C   0  0  0  0  0  0  0  0  0  0  0  0
    6.9263   26.5354   18.6335 N   0  0  0  0  0  0  0  0  0  0  0  0
    7.0421   26.1944   17.2631 C   0  0  0  0  0  0  0  0  0  0  0  0
   -1.2296   14.9639   21.6235 N   0  0  0  0  0  0  0  0  0  0  0  0
    6.6972   24.9065   16.8287 C   0  0  0  0  0  0  0  0  0  0  0  0
    2.7194   15.7424   25.2967 H   0  0  0  0  0  0  0  0  0  0  0  0
    1.6125   17.1968   25.3018 H   0  0  0  0  0  0  0  0  0  0  0  0
    0.1211   15.3726   25.4813 H   0  0  0  0  0  0  0  0  0  0  0  0
    1.9504   13.9956   23.3852 H   0  0  0  0  0  0  0  0  0  0  0  0
    1.1966   12.2688   25.0194 H   0  0  0  0  0  0  0  0  0  0  0  0
    0.1352   12.8887   22.5167 H   0  0  0  0  0  0  0  0  0  0  0  0
   -1.6347   12.3024   23.7345 H   0  0  0  0  0  0  0  0  0  0  0  0
   -1.7921   14.8449   23.6482 H   0  0  0  0  0  0  0  0  0  0  0  0
    1.8112   13.3502   18.6056 H   0  0  0  0  0  0  0  0  0  0  0  0
    8.4970   27.5652   13.2614 H   0  0  0  0  0  0  0  0  0  0  0  0
    8.0633   28.8430   14.4500 H   0  0  0  0  0  0  0  0  0  0  0  0
    5.8431   17.2946   23.9404 H   0  0  0  0  0  0  0  0  0  0  0  0
    1.3886   19.4347   22.7597 H   0  0  0  0  0  0  0  0  0  0  0  0
    2.2956   21.2269   19.8079 H   0  0  0  0  0  0  0  0  0  0  0  0
    6.9625   21.5525   23.0886 H   0  0  0  0  0  0  0  0  0  0  0  0
    7.3946   25.3850   13.5979 H   0  0  0  0  0  0  0  0  0  0  0  0
    6.1657   22.2867   19.9276 H   0  0  0  0  0  0  0  0  0  0  0  0
    5.7425   23.6444   21.0423 H   0  0  0  0  0  0  0  0  0  0  0  0
   -2.0411   16.0306   16.5822 H   0  0  0  0  0  0  0  0  0  0  0  0
   -2.7568   14.3839   16.6668 H   0  0  0  0  0  0  0  0  0  0  0  0
    5.5451   26.0151   20.1063 H   0  0  0  0  0  0  0  0  0  0  0  0
    7.2442   25.5030   20.4189 H   0  0  0  0  0  0  0  0  0  0  0  0
   -3.1327   15.9199   21.9755 H   0  0  0  0  0  0  0  0  0  0  0  0
    7.1795   27.5023   18.9390 H   0  0  0  0  0  0  0  0  0  0  0  0
  6  5  1  0
  1  6  1  6
  7  5  1  0
  8  7  1  0
  9  7  1  0
  9 10  1  0
 11  9  1  0
 11 12  1  0
 13 11  1  0
 13  8  1  0
 16  1  2  0
 17  2  2  0
 18  3  2  0
 19  4  2  0
 20 14  2  0
 21 15  2  0
 22 20  1  0
 23  1  1  0
  2 24  1  6
  3 25  1  1
  4 26  1  1
 27 20  1  0
 28 21  1  0
 29  2  1  0
 29  1  1  0
 30  2  1  0
 30  4  1  0
 31  3  1  0
 32  3  1  0
 32  4  1  0
 33 27  1  0
 34 28  2  0
 35 33  2  0
 36 34  1  0
 38 37  2  0
 39 31  1  0
 39 38  1  0
 40 15  1  0
 40 36  2  0
 41 40  1  0
 42 38  1  0
 43 36  1  0
 44 43  2  0
 45 42  1  0
 46 14  1  0
 46 45  1  0
 47 34  1  0
 13 47  1  0
 47 44  1  0
 48 33  1  0
 48 46  2  0
 48 37  1  0
  5 49  1  0
  5 50  1  0
  7 51  1  1
  9 52  1  6
 10 53  1  0
 11 54  1  6
 12 55  1  0
 13 56  1  1
 21 57  1  0
 22 58  1  0
 22 59  1  0
 23 60  1  0
 24 61  1  0
 25 62  1  0
 26 63  1  0
 27 64  1  0
 39 65  1  0
 39 66  1  0
 41 67  1  0
 41 68  1  0
 42 69  1  0
 42 70  1  0
 44 71  1  0
 45 72  1  0
M  END
