
     RDKit          3D

 44 45  0  0  0  0  0  0  0  0999 V2000
   14.5742  -16.4598   27.6793 P   0  0  1  0  0  0  0  0  0  0  0  0
   16.8537  -18.1605   28.0794 P   0  0  0  0  0  0  0  0  0  0  0  0
   11.4519   -9.5643   21.8554 C   0  0  0  0  0  0  0  0  0  0  0  0
   12.4541  -10.4063   21.3530 C   0  0  0  0  0  0  0  0  0  0  0  0
   12.0651  -11.4375   20.4680 C   0  0  0  0  0  0  0  0  0  0  0  0
   13.0206  -12.3143   19.8650 N   0  0  0  0  0  0  0  0  0  0  0  0
   10.7564  -11.5878   20.1447 N   0  0  0  0  0  0  0  0  0  0  0  0
    9.8064  -10.7509   20.6335 C   0  0  0  0  0  0  0  0  0  0  0  0
   10.1571   -9.7513   21.4892 N   0  0  0  0  0  0  0  0  0  0  0  0
   15.3941  -13.1694   23.1018 N   0  0  0  0  0  0  0  0  0  0  0  0
    8.3735  -10.9648   20.2655 C   0  0  0  0  0  0  0  0  0  0  0  0
   15.0883  -12.3385   22.1109 N   0  0  0  0  0  0  0  0  0  0  0  0
   14.3916  -11.3022   22.5664 N   0  0  0  0  0  0  0  0  0  0  0  0
   14.2299  -11.4628   23.8931 C   0  0  0  0  0  0  0  0  0  0  0  0
   13.5409  -10.5097   24.8298 C   0  0  0  0  0  0  0  0  0  0  0  0
   14.8551  -12.6483   24.2273 C   0  0  0  0  0  0  0  0  0  0  0  0
   15.0769  -13.1656   25.6225 C   0  0  0  0  0  0  0  0  0  0  0  0
   14.7258  -14.6425   25.8472 C   0  0  0  0  0  0  0  0  0  0  0  0
   14.7171  -14.8277   27.2451 O   0  0  0  0  0  0  0  0  0  0  0  0
   15.7986  -17.4106   26.9813 O   0  0  0  0  0  0  0  0  0  0  0  0
   14.4578  -16.5507   29.1922 O   0  0  0  0  0  0  0  0  0  0  0  0
   13.1657  -17.0779   27.0141 O   0  0  0  0  0  0  0  0  0  0  0  0
   16.4657  -18.0398   29.5326 O   0  0  0  0  0  0  0  0  0  0  0  0
   18.4085  -17.5404   27.8531 O   0  0  0  0  0  0  0  0  0  0  0  0
   16.8580  -19.7894   27.6370 O   0  0  0  0  0  0  0  0  0  0  0  0
   13.9008  -10.1933   21.7417 C   0  0  0  0  0  0  0  0  0  0  0  0
   11.6962   -8.7508   22.5253 H   0  0  0  0  0  0  0  0  0  0  0  0
   13.3645  -13.1441   20.3974 H   0  0  0  0  0  0  0  0  0  0  0  0
   13.2793  -12.2544   18.8578 H   0  0  0  0  0  0  0  0  0  0  0  0
    7.9200  -11.7017   20.9604 H   0  0  0  0  0  0  0  0  0  0  0  0
    7.8136  -10.0081   20.3324 H   0  0  0  0  0  0  0  0  0  0  0  0
    8.2990  -11.3486   19.2261 H   0  0  0  0  0  0  0  0  0  0  0  0
   14.2901  -10.0569   25.5119 H   0  0  0  0  0  0  0  0  0  0  0  0
   12.7856  -11.0590   25.4295 H   0  0  0  0  0  0  0  0  0  0  0  0
   13.0199   -9.6987   24.2894 H   0  0  0  0  0  0  0  0  0  0  0  0
   14.4809  -12.5559   26.3349 H   0  0  0  0  0  0  0  0  0  0  0  0
   16.1455  -13.0085   25.8839 H   0  0  0  0  0  0  0  0  0  0  0  0
   15.4929  -15.2807   25.3535 H   0  0  0  0  0  0  0  0  0  0  0  0
   13.7173  -14.8556   25.4290 H   0  0  0  0  0  0  0  0  0  0  0  0
   13.1486  -18.0285   27.2920 H   0  0  0  0  0  0  0  0  0  0  0  0
   18.7779  -18.0544   27.0914 H   0  0  0  0  0  0  0  0  0  0  0  0
   16.0117  -20.1536   28.0003 H   0  0  0  0  0  0  0  0  0  0  0  0
   14.5228  -10.1022   20.8263 H   0  0  0  0  0  0  0  0  0  0  0  0
   14.0351   -9.2322   22.2828 H   0  0  0  0  0  0  0  0  0  0  0  0
  4  3  2  0
  5  4  1  0
  6  5  1  0
  7  5  2  0
  8  7  1  0
  9  8  2  0
  9  3  1  0
 11  8  1  0
 12 10  2  0
 13 12  1  0
 14 13  1  0
 15 14  1  0
 16 10  1  0
 16 14  2  0
 17 16  1  0
 18 17  1  0
 19 18  1  0
  1 19  1  1
 20  1  1  0
 20  2  1  0
 21  1  2  0
 22  1  1  0
 23  2  2  0
 24  2  1  0
 25  2  1  0
 26  4  1  0
 26 13  1  0
  3 27  1  0
  6 28  1  0
  6 29  1  0
 11 30  1  0
 11 31  1  0
 11 32  1  0
 15 33  1  0
 15 34  1  0
 15 35  1  0
 17 36  1  0
 17 37  1  0
 18 38  1  0
 18 39  1  0
 22 40  1  0
 24 41  1  0
 25 42  1  0
 26 43  1  0
 26 44  1  0
M  END
