
     RDKit          3D

 44 45  0  0  0  0  0  0  0  0999 V2000
  -16.4159    8.6163  -30.6779 P   0  0  1  0  0  0  0  0  0  0  0  0
  -17.7078    7.2772  -32.8435 P   0  0  0  0  0  0  0  0  0  0  0  0
  -12.3516    9.4151  -21.9275 C   0  0  0  0  0  0  0  0  0  0  0  0
  -13.2355    8.3459  -22.1241 C   0  0  0  0  0  0  0  0  0  0  0  0
  -12.6812    7.0554  -22.2842 C   0  0  0  0  0  0  0  0  0  0  0  0
  -13.5031    5.8961  -22.4367 N   0  0  0  0  0  0  0  0  0  0  0  0
  -11.3348    6.8944  -22.2618 N   0  0  0  0  0  0  0  0  0  0  0  0
  -10.5000    7.9451  -22.0605 C   0  0  0  0  0  0  0  0  0  0  0  0
  -11.0112    9.1965  -21.8998 N   0  0  0  0  0  0  0  0  0  0  0  0
  -16.0831    7.1289  -25.1435 N   0  0  0  0  0  0  0  0  0  0  0  0
   -9.0213    7.7276  -22.0713 C   0  0  0  0  0  0  0  0  0  0  0  0
  -15.5822    7.0711  -23.9147 N   0  0  0  0  0  0  0  0  0  0  0  0
  -15.2907    8.2880  -23.4692 N   0  0  0  0  0  0  0  0  0  0  0  0
  -15.6016    9.1698  -24.4384 C   0  0  0  0  0  0  0  0  0  0  0  0
  -15.5071   10.6655  -24.3264 C   0  0  0  0  0  0  0  0  0  0  0  0
  -16.0965    8.4330  -25.5022 C   0  0  0  0  0  0  0  0  0  0  0  0
  -16.7277    8.9786  -26.7602 C   0  0  0  0  0  0  0  0  0  0  0  0
  -16.1786    8.4214  -28.0887 C   0  0  0  0  0  0  0  0  0  0  0  0
  -16.7857    9.1788  -29.1141 O   0  0  0  0  0  0  0  0  0  0  0  0
  -17.4114    7.3317  -31.1737 O   0  0  0  0  0  0  0  0  0  0  0  0
  -16.4396    9.7996  -31.6310 O   0  0  0  0  0  0  0  0  0  0  0  0
  -14.8765    7.9546  -30.7250 O   0  0  0  0  0  0  0  0  0  0  0  0
  -16.5563    7.7642  -33.6876 O   0  0  0  0  0  0  0  0  0  0  0  0
  -19.0979    8.1555  -33.2198 O   0  0  0  0  0  0  0  0  0  0  0  0
  -17.9964    5.6466  -33.1790 O   0  0  0  0  0  0  0  0  0  0  0  0
  -14.7296    8.5832  -22.1461 C   0  0  0  0  0  0  0  0  0  0  0  0
  -12.7238   10.4220  -21.7909 H   0  0  0  0  0  0  0  0  0  0  0  0
  -14.1969    5.8561  -23.2160 H   0  0  0  0  0  0  0  0  0  0  0  0
  -13.3051    5.0079  -21.9290 H   0  0  0  0  0  0  0  0  0  0  0  0
   -8.5260    8.5838  -22.5746 H   0  0  0  0  0  0  0  0  0  0  0  0
   -8.6387    7.6443  -21.0322 H   0  0  0  0  0  0  0  0  0  0  0  0
   -8.7765    6.7917  -22.6166 H   0  0  0  0  0  0  0  0  0  0  0  0
  -14.5783   11.0159  -24.8219 H   0  0  0  0  0  0  0  0  0  0  0  0
  -15.4943   10.9698  -23.2598 H   0  0  0  0  0  0  0  0  0  0  0  0
  -16.3802   11.1584  -24.7960 H   0  0  0  0  0  0  0  0  0  0  0  0
  -16.6230   10.0834  -26.7792 H   0  0  0  0  0  0  0  0  0  0  0  0
  -17.8173    8.7657  -26.7127 H   0  0  0  0  0  0  0  0  0  0  0  0
  -16.4437    7.3442  -28.1789 H   0  0  0  0  0  0  0  0  0  0  0  0
  -15.0745    8.5520  -28.1168 H   0  0  0  0  0  0  0  0  0  0  0  0
  -15.0200    6.9818  -30.8445 H   0  0  0  0  0  0  0  0  0  0  0  0
  -18.7808    8.8964  -33.7954 H   0  0  0  0  0  0  0  0  0  0  0  0
  -17.1176    5.2046  -33.0636 H   0  0  0  0  0  0  0  0  0  0  0  0
  -15.2164    7.9398  -21.3829 H   0  0  0  0  0  0  0  0  0  0  0  0
  -14.9764    9.6267  -21.8543 H   0  0  0  0  0  0  0  0  0  0  0  0
  4  3  2  0
  5  4  1  0
  6  5  1  0
  7  5  2  0
  8  7  1  0
  9  3  1  0
  9  8  2  0
 11  8  1  0
 12 10  2  0
 13 12  1  0
 14 13  1  0
 15 14  1  0
 16 14  2  0
 16 10  1  0
 17 16  1  0
 18 17  1  0
 19 18  1  0
  1 19  1  1
 20  2  1  0
 20  1  1  0
 21  1  2  0
 22  1  1  0
 23  2  2  0
 24  2  1  0
 25  2  1  0
 26 13  1  0
 26  4  1  0
  3 27  1  0
  6 28  1  0
  6 29  1  0
 11 30  1  0
 11 31  1  0
 11 32  1  0
 15 33  1  0
 15 34  1  0
 15 35  1  0
 17 36  1  0
 17 37  1  0
 18 38  1  0
 18 39  1  0
 22 40  1  0
 24 41  1  0
 25 42  1  0
 26 43  1  0
 26 44  1  0
M  END
