
     RDKit          3D

 12 12  0  0  0  0  0  0  0  0999 V2000
  -25.3278  -10.7560  -14.0972 C   0  0  0  0  0  0  0  0  0  0  0  0
  -25.8899   -9.7402  -13.2182 C   0  0  0  0  0  0  0  0  0  0  0  0
  -26.0618   -9.8375  -11.8525 C   0  0  0  0  0  0  0  0  0  0  0  0
  -26.6207   -8.6356  -11.4708 C   0  0  0  0  0  0  0  0  0  0  0  0
  -26.7531   -7.8867  -12.6216 C   0  0  0  0  0  0  0  0  0  0  0  0
  -24.2102  -10.5617  -14.6439 O   0  0  0  0  0  0  0  0  0  0  0  0
  -26.0218  -11.9288  -14.3254 O   0  0  0  0  0  0  0  0  0  0  0  0
  -26.3086   -8.5732  -13.6488 O   0  0  0  0  0  0  0  0  0  0  0  0
  -25.8125  -10.6742  -11.2132 H   0  0  0  0  0  0  0  0  0  0  0  0
  -26.8993   -8.3392  -10.4685 H   0  0  0  0  0  0  0  0  0  0  0  0
  -27.1592   -6.8860  -12.6846 H   0  0  0  0  0  0  0  0  0  0  0  0
  -27.0146  -11.9147  -14.5264 H   0  0  0  0  0  0  0  0  0  0  0  0
  2  1  1  0
  3  2  2  0
  4  3  1  0
  5  4  2  0
  6  1  2  0
  7  1  1  0
  8  5  1  0
  8  2  1  0
  3  9  1  0
  4 10  1  0
  5 11  1  0
  7 12  1  0
M  END
