
     RDKit          3D

 55 58  0  0  0  0  0  0  0  0999 V2000
   -3.8295    2.1249   13.9156 C   0  0  0  0  0  0  0  0  0  0  0  0
   -6.0433   -0.9768   16.4220 N   0  0  0  0  0  0  0  0  0  0  0  0
   -5.1949    1.3712   17.2358 O   0  0  0  0  0  0  0  0  0  0  0  0
   -6.1631    0.7227   16.2930 S   0  0  0  0  0  0  0  0  0  0  0  0
   -5.1372    2.2727   14.3366 C   0  0  0  0  0  0  0  0  0  0  0  0
   -7.5699    1.1544   16.5688 O   0  0  0  0  0  0  0  0  0  0  0  0
   -5.7235    3.5523   14.3374 C   0  0  0  0  0  0  0  0  0  0  0  0
   -5.7757    1.1031   14.7070 O   0  0  0  0  0  0  0  0  0  0  0  0
   -4.9773    4.6417   13.8550 C   0  0  0  0  0  0  0  0  0  0  0  0
   -3.6366    4.4962   13.4440 C   0  0  0  0  0  0  0  0  0  0  0  0
   -3.0812    3.2009   13.4413 C   0  0  0  0  0  0  0  0  0  0  0  0
   -1.6721    2.9328   12.9676 C   0  0  0  0  0  0  0  0  0  0  0  0
   -1.1923    3.9779   11.9584 C   0  0  0  0  0  0  0  0  0  0  0  0
   -1.3718    5.3644   12.5830 C   0  0  2  0  0  0  0  0  0  0  0  0
   -2.8952    5.6449   12.7754 C   0  0  2  0  0  0  0  0  0  0  0  0
   -3.1265    7.0340   13.4262 C   0  0  0  0  0  0  0  0  0  0  0  0
   -2.4737    8.1544   12.5809 C   0  0  0  0  0  0  0  0  0  0  0  0
   -0.9730    7.8753   12.4050 C   0  0  1  0  0  0  0  0  0  0  0  0
   -0.7666    6.5066   11.7354 C   0  0  1  0  0  0  0  0  0  0  0  0
    0.7348    6.5056   11.4329 C   0  0  0  0  0  0  0  0  0  0  0  0
    1.0749    7.9991   11.1864 C   0  0  0  0  0  0  0  0  0  0  0  0
   -0.2442    8.7666   11.3957 C   0  0  2  0  0  0  0  0  0  0  0  0
   -0.0304   10.0666   11.8778 O   0  0  0  0  0  0  0  0  0  0  0  0
   -0.2774    8.0000   13.8030 C   0  0  0  0  0  0  0  0  0  0  0  0
   -7.1360    3.7943   14.7867 C   0  0  0  0  0  0  0  0  0  0  0  0
   -7.2148    3.8009   16.3112 C   0  0  0  0  0  0  0  0  0  0  0  0
   -3.3885    1.1342   13.9275 H   0  0  0  0  0  0  0  0  0  0  0  0
   -5.0709   -1.2357   16.1412 H   0  0  0  0  0  0  0  0  0  0  0  0
   -6.6821   -1.3832   15.7023 H   0  0  0  0  0  0  0  0  0  0  0  0
   -5.4715    5.5986   13.7915 H   0  0  0  0  0  0  0  0  0  0  0  0
   -1.6147    1.9340   12.4819 H   0  0  0  0  0  0  0  0  0  0  0  0
   -0.9935    2.9193   13.8482 H   0  0  0  0  0  0  0  0  0  0  0  0
   -0.1194    3.7942   11.7349 H   0  0  0  0  0  0  0  0  0  0  0  0
   -1.7686    3.8940   11.0103 H   0  0  0  0  0  0  0  0  0  0  0  0
   -0.8710    5.3428   13.5740 H   0  0  0  0  0  0  0  0  0  0  0  0
   -3.3444    5.7047   11.7572 H   0  0  0  0  0  0  0  0  0  0  0  0
   -4.2057    7.2787   13.4466 H   0  0  0  0  0  0  0  0  0  0  0  0
   -2.7904    7.0403   14.4820 H   0  0  0  0  0  0  0  0  0  0  0  0
   -2.6293    9.1364   13.0787 H   0  0  0  0  0  0  0  0  0  0  0  0
   -2.9711    8.2030   11.5867 H   0  0  0  0  0  0  0  0  0  0  0  0
   -1.2966    6.4921   10.7511 H   0  0  0  0  0  0  0  0  0  0  0  0
    0.9520    5.8932   10.5309 H   0  0  0  0  0  0  0  0  0  0  0  0
    1.3166    6.1038   12.2908 H   0  0  0  0  0  0  0  0  0  0  0  0
    1.4315    8.1465   10.1441 H   0  0  0  0  0  0  0  0  0  0  0  0
    1.8756    8.3476   11.8742 H   0  0  0  0  0  0  0  0  0  0  0  0
   -0.8173    8.8135   10.4379 H   0  0  0  0  0  0  0  0  0  0  0  0
   -0.2608   10.6822   11.1340 H   0  0  0  0  0  0  0  0  0  0  0  0
   -0.1637    9.0397   14.1629 H   0  0  0  0  0  0  0  0  0  0  0  0
    0.7384    7.5695   13.8379 H   0  0  0  0  0  0  0  0  0  0  0  0
   -0.8746    7.4616   14.5696 H   0  0  0  0  0  0  0  0  0  0  0  0
   -7.8237    3.0393   14.3579 H   0  0  0  0  0  0  0  0  0  0  0  0
   -7.4902    4.7771   14.4054 H   0  0  0  0  0  0  0  0  0  0  0  0
   -6.7611    2.8847   16.7416 H   0  0  0  0  0  0  0  0  0  0  0  0
   -6.6766    4.6844   16.7161 H   0  0  0  0  0  0  0  0  0  0  0  0
   -8.2771    3.8593   16.6284 H   0  0  0  0  0  0  0  0  0  0  0  0
  4  2  1  0
  4  3  2  0
  5  1  2  0
  6  4  2  0
  7  5  1  0
  8  5  1  0
  8  4  1  0
  9  7  2  0
 10  9  1  0
 11 10  2  0
 11  1  1  0
 12 11  1  0
 13 12  1  0
 14 13  1  0
 15 10  1  0
 15 14  1  0
 15 16  1  0
 17 16  1  0
 18 17  1  0
 19 18  1  0
 19 14  1  0
 19 20  1  0
 21 20  1  0
 22 21  1  0
 22 18  1  0
 22 23  1  0
 18 24  1  1
 25  7  1  0
 26 25  1  0
  1 27  1  0
  2 28  1  0
  2 29  1  0
  9 30  1  0
 12 31  1  0
 12 32  1  0
 13 33  1  0
 13 34  1  0
 14 35  1  1
 15 36  1  6
 16 37  1  0
 16 38  1  0
 17 39  1  0
 17 40  1  0
 19 41  1  6
 20 42  1  0
 20 43  1  0
 21 44  1  0
 21 45  1  0
 22 46  1  6
 23 47  1  0
 24 48  1  0
 24 49  1  0
 24 50  1  0
 25 51  1  0
 25 52  1  0
 26 53  1  0
 26 54  1  0
 26 55  1  0
M  END
