
     RDKit          3D

 55 58  0  0  0  0  0  0  0  0999 V2000
   -3.1995    2.5558   14.4827 C   0  0  0  0  0  0  0  0  0  0  0  0
   -5.2439   -1.1444   16.2932 N   0  0  0  0  0  0  0  0  0  0  0  0
   -4.3114    1.0096   17.4706 O   0  0  0  0  0  0  0  0  0  0  0  0
   -5.3448    0.5502   16.4867 S   0  0  0  0  0  0  0  0  0  0  0  0
   -4.5450    2.4898   14.7894 C   0  0  0  0  0  0  0  0  0  0  0  0
   -6.7255    0.9295   16.9240 O   0  0  0  0  0  0  0  0  0  0  0  0
   -5.2970    3.6774   14.8635 C   0  0  0  0  0  0  0  0  0  0  0  0
   -5.0478    1.2151   14.9768 O   0  0  0  0  0  0  0  0  0  0  0  0
   -4.6679    4.8993   14.5675 C   0  0  0  0  0  0  0  0  0  0  0  0
   -3.2908    4.9706   14.2741 C   0  0  0  0  0  0  0  0  0  0  0  0
   -2.5671    3.7639   14.1935 C   0  0  0  0  0  0  0  0  0  0  0  0
   -1.1008    3.7299   13.8323 C   0  0  0  0  0  0  0  0  0  0  0  0
   -0.6858    4.9341   12.9846 C   0  0  0  0  0  0  0  0  0  0  0  0
   -1.1013    6.2077   13.7261 C   0  0  2  0  0  0  0  0  0  0  0  0
   -2.6593    6.2712   13.7991 C   0  0  2  0  0  0  0  0  0  0  0  0
   -3.1285    7.5380   14.5620 C   0  0  0  0  0  0  0  0  0  0  0  0
   -2.5662    8.8196   13.9008 C   0  0  0  0  0  0  0  0  0  0  0  0
   -1.0323    8.7527   13.8420 C   0  0  1  0  0  0  0  0  0  0  0  0
   -0.5889    7.5051   13.0603 C   0  0  1  0  0  0  0  0  0  0  0  0
    0.9186    7.7268   12.9044 C   0  0  0  0  0  0  0  0  0  0  0  0
    1.0727    9.2693   12.8440 C   0  0  0  0  0  0  0  0  0  0  0  0
   -0.3505    9.8366   13.0025 C   0  0  2  0  0  0  0  0  0  0  0  0
   -0.3545   11.0904   13.6319 O   0  0  0  0  0  0  0  0  0  0  0  0
   -0.4764    8.8052   15.3056 C   0  0  0  0  0  0  0  0  0  0  0  0
   -6.7611    3.6880   15.1977 C   0  0  0  0  0  0  0  0  0  0  0  0
   -7.4510    2.4637   14.6015 C   0  0  0  0  0  0  0  0  0  0  0  0
   -2.6311    1.6334   14.4365 H   0  0  0  0  0  0  0  0  0  0  0  0
   -4.2944   -1.3512   15.9098 H   0  0  0  0  0  0  0  0  0  0  0  0
   -5.9312   -1.4083   15.5522 H   0  0  0  0  0  0  0  0  0  0  0  0
   -5.2800    5.7876   14.5540 H   0  0  0  0  0  0  0  0  0  0  0  0
   -0.8695    2.8074   13.2558 H   0  0  0  0  0  0  0  0  0  0  0  0
   -0.5008    3.7024   14.7679 H   0  0  0  0  0  0  0  0  0  0  0  0
    0.4168    4.9130   12.8474 H   0  0  0  0  0  0  0  0  0  0  0  0
   -1.1661    4.8861   11.9821 H   0  0  0  0  0  0  0  0  0  0  0  0
   -0.6848    6.1375   14.7533 H   0  0  0  0  0  0  0  0  0  0  0  0
   -3.0278    6.3886   12.7539 H   0  0  0  0  0  0  0  0  0  0  0  0
   -4.2289    7.6414   14.5036 H   0  0  0  0  0  0  0  0  0  0  0  0
   -2.8837    7.4673   15.6403 H   0  0  0  0  0  0  0  0  0  0  0  0
   -2.8932    9.7118   14.4781 H   0  0  0  0  0  0  0  0  0  0  0  0
   -2.9828    8.9172   12.8735 H   0  0  0  0  0  0  0  0  0  0  0  0
   -1.0298    7.5354   12.0334 H   0  0  0  0  0  0  0  0  0  0  0  0
    1.2895    7.2521   11.9701 H   0  0  0  0  0  0  0  0  0  0  0  0
    1.4772    7.3070   13.7690 H   0  0  0  0  0  0  0  0  0  0  0  0
    1.4901    9.5770   11.8608 H   0  0  0  0  0  0  0  0  0  0  0  0
    1.7602    9.6357   13.6369 H   0  0  0  0  0  0  0  0  0  0  0  0
   -0.8446    9.9189   12.0039 H   0  0  0  0  0  0  0  0  0  0  0  0
   -1.1089   11.0773   14.2768 H   0  0  0  0  0  0  0  0  0  0  0  0
    0.0559    7.8889   15.6228 H   0  0  0  0  0  0  0  0  0  0  0  0
   -1.2518    8.9694   16.0737 H   0  0  0  0  0  0  0  0  0  0  0  0
    0.2468    9.6430   15.4034 H   0  0  0  0  0  0  0  0  0  0  0  0
   -7.2413    4.6227   14.8475 H   0  0  0  0  0  0  0  0  0  0  0  0
   -6.8965    3.6736   16.3013 H   0  0  0  0  0  0  0  0  0  0  0  0
   -7.2423    2.3730   13.5158 H   0  0  0  0  0  0  0  0  0  0  0  0
   -7.0933    1.5415   15.1074 H   0  0  0  0  0  0  0  0  0  0  0  0
   -8.5480    2.5451   14.7514 H   0  0  0  0  0  0  0  0  0  0  0  0
  4  2  1  0
  4  3  2  0
  5  1  2  0
  6  4  2  0
  7  5  1  0
  8  5  1  0
  8  4  1  0
  9  7  2  0
 10  9  1  0
 11 10  2  0
 11  1  1  0
 12 11  1  0
 13 12  1  0
 14 13  1  0
 15 10  1  0
 15 14  1  0
 15 16  1  0
 17 16  1  0
 18 17  1  0
 19 18  1  0
 19 14  1  0
 19 20  1  0
 21 20  1  0
 22 21  1  0
 22 18  1  0
 22 23  1  0
 18 24  1  1
 25  7  1  0
 26 25  1  0
  1 27  1  0
  2 28  1  0
  2 29  1  0
  9 30  1  0
 12 31  1  0
 12 32  1  0
 13 33  1  0
 13 34  1  0
 14 35  1  1
 15 36  1  6
 16 37  1  0
 16 38  1  0
 17 39  1  0
 17 40  1  0
 19 41  1  6
 20 42  1  0
 20 43  1  0
 21 44  1  0
 21 45  1  0
 22 46  1  6
 23 47  1  0
 24 48  1  0
 24 49  1  0
 24 50  1  0
 25 51  1  0
 25 52  1  0
 26 53  1  0
 26 54  1  0
 26 55  1  0
M  END
