
     RDKit          3D

 44 49  0  0  0  0  0  0  0  0999 V2000
   -8.3296   11.7450   -2.6484 C   0  0  1  0  0  0  0  0  0  0  0  0
  -11.8669   11.2952   -3.6036 N   0  0  0  0  0  0  0  0  0  0  0  0
   -8.1279   12.6056   -4.9182 O   0  0  0  0  0  0  0  0  0  0  0  0
   -7.3959   10.6497   -0.5623 C   0  0  0  0  0  0  0  0  0  0  0  0
   -6.3718   11.3644   -3.9921 N   0  0  0  0  0  0  0  0  0  0  0  0
   -5.2013   10.0455   -2.4548 O   0  0  0  0  0  0  0  0  0  0  0  0
   -7.7843    9.6881    0.2926 C   0  0  0  0  0  0  0  0  0  0  0  0
   -7.5628   10.1201    1.6282 N   0  0  0  0  0  0  0  0  0  0  0  0
   -9.7892   11.4739   -2.7815 C   0  0  0  0  0  0  0  0  0  0  0  0
  -10.5869   11.5956   -3.9156 C   0  0  0  0  0  0  0  0  0  0  0  0
   -7.5480   10.5590   -2.0488 C   0  0  2  0  0  0  0  0  0  0  0  0
   -7.6470   11.9567   -3.9544 C   0  0  0  0  0  0  0  0  0  0  0  0
   -6.2634   10.6182   -2.8018 C   0  0  0  0  0  0  0  0  0  0  0  0
  -11.8720   10.9724   -2.2945 C   0  0  0  0  0  0  0  0  0  0  0  0
  -10.6163   11.0675   -1.7625 C   0  0  0  0  0  0  0  0  0  0  0  0
  -10.3502   10.7895   -0.4200 C   0  0  0  0  0  0  0  0  0  0  0  0
  -11.4239   10.3923    0.3901 C   0  0  0  0  0  0  0  0  0  0  0  0
  -12.7230   10.2936   -0.1520 C   0  0  0  0  0  0  0  0  0  0  0  0
  -12.9590   10.5877   -1.5101 C   0  0  0  0  0  0  0  0  0  0  0  0
   -6.6971   12.1081    2.6363 C   0  0  0  0  0  0  0  0  0  0  0  0
   -6.8862   11.5225    3.9126 C   0  0  0  0  0  0  0  0  0  0  0  0
   -7.4242   10.2042    4.0053 C   0  0  0  0  0  0  0  0  0  0  0  0
   -7.7748    9.5016    2.8234 C   0  0  0  0  0  0  0  0  0  0  0  0
   -7.0555   11.3523    1.5351 C   0  0  0  0  0  0  0  0  0  0  0  0
   -6.9205   11.7759    0.2455 C   0  0  0  0  0  0  0  0  0  0  0  0
   -6.4094   13.0412   -0.0436 C   0  0  0  0  0  0  0  0  0  0  0  0
   -6.0306   13.8545    1.0490 C   0  0  0  0  0  0  0  0  0  0  0  0
   -6.1691   13.3922    2.3866 C   0  0  0  0  0  0  0  0  0  0  0  0
   -8.1762   12.6685   -2.0466 H   0  0  0  0  0  0  0  0  0  0  0  0
  -12.6851   11.3037   -4.2523 H   0  0  0  0  0  0  0  0  0  0  0  0
   -5.6533   11.4616   -4.7433 H   0  0  0  0  0  0  0  0  0  0  0  0
   -8.2173    8.7342    0.0191 H   0  0  0  0  0  0  0  0  0  0  0  0
  -10.2596   11.8859   -4.9052 H   0  0  0  0  0  0  0  0  0  0  0  0
   -8.0404    9.5967   -2.3192 H   0  0  0  0  0  0  0  0  0  0  0  0
   -9.3549   10.8797   -0.0070 H   0  0  0  0  0  0  0  0  0  0  0  0
  -11.2559   10.1661    1.4350 H   0  0  0  0  0  0  0  0  0  0  0  0
  -13.5464    9.9897    0.4811 H   0  0  0  0  0  0  0  0  0  0  0  0
  -13.9534   10.5140   -1.9308 H   0  0  0  0  0  0  0  0  0  0  0  0
   -6.6218   12.0642    4.8117 H   0  0  0  0  0  0  0  0  0  0  0  0
   -7.5712    9.7445    4.9737 H   0  0  0  0  0  0  0  0  0  0  0  0
   -8.1875    8.5021    2.8677 H   0  0  0  0  0  0  0  0  0  0  0  0
   -6.3027   13.3863   -1.0633 H   0  0  0  0  0  0  0  0  0  0  0  0
   -5.6273   14.8415    0.8643 H   0  0  0  0  0  0  0  0  0  0  0  0
   -5.8700   14.0293    3.2093 H   0  0  0  0  0  0  0  0  0  0  0  0
  7  4  2  0
  8  7  1  0
  1  9  1  0
 10  2  1  0
 10  9  2  0
 11  4  1  0
 11  1  1  0
 12  3  2  0
 12  5  1  0
 12  1  1  0
 13 11  1  0
 13  5  1  0
 13  6  2  0
 14  2  1  0
 15 14  2  0
 15  9  1  0
 16 15  1  0
 17 16  2  0
 18 17  1  0
 19 14  1  0
 19 18  2  0
 21 20  1  0
 22 21  2  0
 23 22  1  0
 23  8  2  0
 24  8  1  0
 24 20  1  0
 25 24  2  0
 25  4  1  0
 26 25  1  0
 27 26  2  0
 28 20  2  0
 28 27  1  0
  1 29  1  1
  2 30  1  0
  5 31  1  0
  7 32  1  0
 10 33  1  0
 11 34  1  1
 16 35  1  0
 17 36  1  0
 18 37  1  0
 19 38  1  0
 21 39  1  0
 22 40  1  0
 23 41  1  0
 26 42  1  0
 27 43  1  0
 28 44  1  0
M  CHG  1   8   1
M  END
