
     RDKit          3D

 51 52  0  0  0  0  0  0  0  0999 V2000
  -22.9719    4.3801   18.9878 N   0  0  0  0  0  0  0  0  0  0  0  0
  -23.6897    4.2207   20.2603 C   0  0  1  0  0  0  0  0  0  0  0  0
  -24.3158    5.5275   20.6849 C   0  0  0  0  0  0  0  0  0  0  0  0
  -24.8349    6.2948   19.8332 O   0  0  0  0  0  0  0  0  0  0  0  0
  -24.7715    3.1510   20.0365 C   0  0  0  0  0  0  0  0  0  0  0  0
  -25.7648    3.0291   21.1878 C   0  0  0  0  0  0  0  0  0  0  0  0
  -26.6579    1.8420   21.0363 C   0  0  0  0  0  0  0  0  0  0  0  0
  -26.5494    0.8224   21.7721 O   0  0  0  0  0  0  0  0  0  0  0  0
  -27.6282    1.8855   20.0565 O   0  0  0  0  0  0  0  0  0  0  0  0
  -24.3871    5.8516   22.0311 O   0  0  0  0  0  0  0  0  0  0  0  0
  -21.4145    5.0904   19.1482 S   0  0  0  0  0  0  0  0  0  0  0  0
  -20.2935    3.9033   19.7333 C   0  0  0  0  0  0  0  0  0  0  0  0
  -19.5706    4.1677   20.8972 C   0  0  0  0  0  0  0  0  0  0  0  0
  -18.6766    3.2265   21.3905 C   0  0  0  0  0  0  0  0  0  0  0  0
  -18.4975    2.0121   20.7189 C   0  0  0  0  0  0  0  0  0  0  0  0
  -19.2284    1.7355   19.5397 C   0  0  0  0  0  0  0  0  0  0  0  0
  -20.1356    2.6867   19.0578 C   0  0  0  0  0  0  0  0  0  0  0  0
  -19.0407    0.5126   18.8757 C   0  0  0  0  0  0  0  0  0  0  0  0
  -18.1258   -0.4206   19.3778 C   0  0  0  0  0  0  0  0  0  0  0  0
  -17.3890   -0.1365   20.5366 C   0  0  0  0  0  0  0  0  0  0  0  0
  -17.6000    1.0720   21.2167 C   0  0  0  0  0  0  0  0  0  0  0  0
  -16.4278   -1.0506   20.9759 O   0  0  0  0  0  0  0  0  0  0  0  0
  -15.3592   -0.6945   21.8546 C   0  0  0  0  0  0  0  0  0  0  0  0
  -14.1290   -1.5304   21.5375 C   0  0  0  0  0  0  0  0  0  0  0  0
  -13.5637   -1.1925   20.1528 C   0  0  0  0  0  0  0  0  0  0  0  0
  -21.4565    6.2581   20.0860 O   0  0  0  0  0  0  0  0  0  0  0  0
  -20.9840    5.5559   17.7893 O   0  0  0  0  0  0  0  0  0  0  0  0
  -12.2893   -1.9841   19.8924 C   0  0  0  0  0  0  0  0  0  0  0  0
  -22.8011    3.4439   18.5509 H   0  0  0  0  0  0  0  0  0  0  0  0
  -23.0002    3.8647   21.0571 H   0  0  0  0  0  0  0  0  0  0  0  0
  -25.3376    3.3828   19.1057 H   0  0  0  0  0  0  0  0  0  0  0  0
  -24.2598    2.1724   19.8934 H   0  0  0  0  0  0  0  0  0  0  0  0
  -25.2113    2.9306   22.1466 H   0  0  0  0  0  0  0  0  0  0  0  0
  -26.4050    3.9356   21.2378 H   0  0  0  0  0  0  0  0  0  0  0  0
  -27.3831    2.0594   19.0890 H   0  0  0  0  0  0  0  0  0  0  0  0
  -24.8285    6.7106   22.3368 H   0  0  0  0  0  0  0  0  0  0  0  0
  -19.6967    5.1037   21.4266 H   0  0  0  0  0  0  0  0  0  0  0  0
  -18.1236    3.4489   22.2958 H   0  0  0  0  0  0  0  0  0  0  0  0
  -20.7118    2.4846   18.1626 H   0  0  0  0  0  0  0  0  0  0  0  0
  -19.5936    0.2819   17.9730 H   0  0  0  0  0  0  0  0  0  0  0  0
  -17.9702   -1.3549   18.8536 H   0  0  0  0  0  0  0  0  0  0  0  0
  -17.0774    1.2832   22.1409 H   0  0  0  0  0  0  0  0  0  0  0  0
  -15.0746    0.3743   21.7379 H   0  0  0  0  0  0  0  0  0  0  0  0
  -15.6759   -0.8689   22.9050 H   0  0  0  0  0  0  0  0  0  0  0  0
  -13.3569   -1.3286   22.3123 H   0  0  0  0  0  0  0  0  0  0  0  0
  -14.3961   -2.6090   21.5859 H   0  0  0  0  0  0  0  0  0  0  0  0
  -13.3298   -0.1072   20.0916 H   0  0  0  0  0  0  0  0  0  0  0  0
  -14.3108   -1.4393   19.3673 H   0  0  0  0  0  0  0  0  0  0  0  0
  -12.0603   -2.6439   20.7564 H   0  0  0  0  0  0  0  0  0  0  0  0
  -12.4238   -2.6169   18.9899 H   0  0  0  0  0  0  0  0  0  0  0  0
  -11.4343   -1.2965   19.7179 H   0  0  0  0  0  0  0  0  0  0  0  0
  2  1  1  0
  3  2  1  0
  4  3  2  0
  2  5  1  0
  6  5  1  0
  7  6  1  0
  8  7  2  0
  9  7  1  0
 10  3  1  0
 11  1  1  0
 12 11  1  0
 13 12  2  0
 14 13  1  0
 15 14  2  0
 16 15  1  0
 17 16  2  0
 17 12  1  0
 18 16  1  0
 19 18  2  0
 20 19  1  0
 21 20  2  0
 21 15  1  0
 22 20  1  0
 23 22  1  0
 24 23  1  0
 25 24  1  0
 26 11  2  0
 27 11  2  0
 28 25  1  0
  1 29  1  0
  2 30  1  1
  5 31  1  0
  5 32  1  0
  6 33  1  0
  6 34  1  0
  9 35  1  0
 10 36  1  0
 13 37  1  0
 14 38  1  0
 17 39  1  0
 18 40  1  0
 19 41  1  0
 21 42  1  0
 23 43  1  0
 23 44  1  0
 24 45  1  0
 24 46  1  0
 25 47  1  0
 25 48  1  0
 28 49  1  0
 28 50  1  0
 28 51  1  0
M  END
