
     RDKit          3D

 51 52  0  0  0  0  0  0  0  0999 V2000
  -22.8339    4.4228   18.7332 N   0  0  0  0  0  0  0  0  0  0  0  0
  -23.5517    4.2633   20.0056 C   0  0  1  0  0  0  0  0  0  0  0  0
  -24.3902    5.4842   20.2997 C   0  0  0  0  0  0  0  0  0  0  0  0
  -25.6464    5.4225   20.2589 O   0  0  0  0  0  0  0  0  0  0  0  0
  -24.4420    3.0171   19.8678 C   0  0  0  0  0  0  0  0  0  0  0  0
  -25.4342    2.8392   21.0126 C   0  0  0  0  0  0  0  0  0  0  0  0
  -26.6423    2.0672   20.5946 C   0  0  0  0  0  0  0  0  0  0  0  0
  -26.8036    1.6631   19.4099 O   0  0  0  0  0  0  0  0  0  0  0  0
  -27.5975    1.7956   21.5523 O   0  0  0  0  0  0  0  0  0  0  0  0
  -23.7755    6.6637   20.6911 O   0  0  0  0  0  0  0  0  0  0  0  0
  -21.2765    5.1330   18.8935 S   0  0  0  0  0  0  0  0  0  0  0  0
  -20.1555    3.9460   19.4787 C   0  0  0  0  0  0  0  0  0  0  0  0
  -18.8033    4.2773   19.5727 C   0  0  0  0  0  0  0  0  0  0  0  0
  -17.8899    3.3464   20.0500 C   0  0  0  0  0  0  0  0  0  0  0  0
  -18.3245    2.0733   20.4348 C   0  0  0  0  0  0  0  0  0  0  0  0
  -19.6940    1.7306   20.3449 C   0  0  0  0  0  0  0  0  0  0  0  0
  -20.6078    2.6806   19.8733 C   0  0  0  0  0  0  0  0  0  0  0  0
  -20.1177    0.4501   20.7354 C   0  0  0  0  0  0  0  0  0  0  0  0
  -19.1830   -0.4820   21.2017 C   0  0  0  0  0  0  0  0  0  0  0  0
  -17.8235   -0.1460   21.2728 C   0  0  0  0  0  0  0  0  0  0  0  0
  -17.4054    1.1434   20.9121 C   0  0  0  0  0  0  0  0  0  0  0  0
  -16.9000   -1.1166   21.6696 O   0  0  0  0  0  0  0  0  0  0  0  0
  -15.5041   -1.0283   21.3785 C   0  0  0  0  0  0  0  0  0  0  0  0
  -14.8750    0.0878   22.1976 C   0  0  0  0  0  0  0  0  0  0  0  0
  -14.8946   -0.2373   23.6960 C   0  0  0  0  0  0  0  0  0  0  0  0
  -21.3185    6.3007   19.8314 O   0  0  0  0  0  0  0  0  0  0  0  0
  -20.8460    5.5985   17.5346 O   0  0  0  0  0  0  0  0  0  0  0  0
  -13.6497    0.3167   24.3755 C   0  0  0  0  0  0  0  0  0  0  0  0
  -22.6631    3.4866   18.2962 H   0  0  0  0  0  0  0  0  0  0  0  0
  -22.8364    4.0960   20.8407 H   0  0  0  0  0  0  0  0  0  0  0  0
  -25.0120    3.0704   18.9124 H   0  0  0  0  0  0  0  0  0  0  0  0
  -23.7766    2.1254   19.8222 H   0  0  0  0  0  0  0  0  0  0  0  0
  -24.9432    2.2951   21.8483 H   0  0  0  0  0  0  0  0  0  0  0  0
  -25.7722    3.8305   21.3830 H   0  0  0  0  0  0  0  0  0  0  0  0
  -28.4342    1.2741   21.3192 H   0  0  0  0  0  0  0  0  0  0  0  0
  -22.8199    6.6657   21.0271 H   0  0  0  0  0  0  0  0  0  0  0  0
  -18.4516    5.2575   19.2766 H   0  0  0  0  0  0  0  0  0  0  0  0
  -16.8436    3.6212   20.1162 H   0  0  0  0  0  0  0  0  0  0  0  0
  -21.6619    2.4372   19.8099 H   0  0  0  0  0  0  0  0  0  0  0  0
  -21.1628    0.1705   20.6763 H   0  0  0  0  0  0  0  0  0  0  0  0
  -19.5103   -1.4743   21.4851 H   0  0  0  0  0  0  0  0  0  0  0  0
  -16.3675    1.4345   21.0110 H   0  0  0  0  0  0  0  0  0  0  0  0
  -14.9735   -1.9709   21.6372 H   0  0  0  0  0  0  0  0  0  0  0  0
  -15.3687   -0.8261   20.2946 H   0  0  0  0  0  0  0  0  0  0  0  0
  -13.8233    0.2216   21.8613 H   0  0  0  0  0  0  0  0  0  0  0  0
  -15.4238    1.0363   22.0075 H   0  0  0  0  0  0  0  0  0  0  0  0
  -14.9244   -1.3387   23.8462 H   0  0  0  0  0  0  0  0  0  0  0  0
  -15.7957    0.2099   24.1696 H   0  0  0  0  0  0  0  0  0  0  0  0
  -13.6026    1.4203   24.2565 H   0  0  0  0  0  0  0  0  0  0  0  0
  -13.6821    0.0788   25.4596 H   0  0  0  0  0  0  0  0  0  0  0  0
  -12.7348   -0.1395   23.9405 H   0  0  0  0  0  0  0  0  0  0  0  0
  2  1  1  0
  3  2  1  0
  4  3  2  0
  2  5  1  0
  6  5  1  0
  7  6  1  0
  8  7  2  0
  9  7  1  0
 10  3  1  0
 11  1  1  0
 12 11  1  0
 13 12  2  0
 14 13  1  0
 15 14  2  0
 16 15  1  0
 17 16  2  0
 17 12  1  0
 18 16  1  0
 19 18  2  0
 20 19  1  0
 21 20  2  0
 21 15  1  0
 22 20  1  0
 23 22  1  0
 24 23  1  0
 25 24  1  0
 26 11  2  0
 27 11  2  0
 28 25  1  0
  1 29  1  0
  2 30  1  1
  5 31  1  0
  5 32  1  0
  6 33  1  0
  6 34  1  0
  9 35  1  0
 10 36  1  0
 13 37  1  0
 14 38  1  0
 17 39  1  0
 18 40  1  0
 19 41  1  0
 21 42  1  0
 23 43  1  0
 23 44  1  0
 24 45  1  0
 24 46  1  0
 25 47  1  0
 25 48  1  0
 28 49  1  0
 28 50  1  0
 28 51  1  0
M  END
