
     RDKit          3D

 24 24  0  0  0  0  0  0  0  0999 V2000
  -38.6818   72.4295   26.3695 C   0  0  0  0  0  0  0  0  0  0  0  0
  -34.9125   70.2364   27.5611 N   0  0  0  0  0  0  0  0  0  0  0  0
  -39.5709   72.5512   27.2558 O   0  0  0  0  0  0  0  0  0  0  0  0
  -37.2667   72.7806   26.6924 C   0  0  0  0  0  0  0  0  0  0  0  0
  -34.2801   67.9777   28.0745 N   0  0  0  0  0  0  0  0  0  0  0  0
  -39.0015   71.9061   25.1285 O   0  0  0  0  0  0  0  0  0  0  0  0
  -36.7574   71.8953   27.8251 C   0  0  0  0  0  0  0  0  0  0  0  0
  -36.9945   69.8801   26.5492 O   0  0  0  0  0  0  0  0  0  0  0  0
  -36.2575   70.5983   27.2819 C   0  0  0  0  0  0  0  0  0  0  0  0
  -34.6149   69.2233   28.4991 C   0  0  0  0  0  0  0  0  0  0  0  0
  -34.6339   69.5325   29.8611 C   0  0  0  0  0  0  0  0  0  0  0  0
  -34.3058   68.5475   30.7839 C   0  0  0  0  0  0  0  0  0  0  0  0
  -33.9585   67.2744   30.3327 C   0  0  0  0  0  0  0  0  0  0  0  0
  -33.9519   67.0042   28.9611 C   0  0  0  0  0  0  0  0  0  0  0  0
  -33.5004   65.9144   31.5766 Br  0  0  0  0  0  0  0  0  0  0  0  0
  -34.1663   70.9459   27.3787 H   0  0  0  0  0  0  0  0  0  0  0  0
  -37.2174   73.8453   27.0058 H   0  0  0  0  0  0  0  0  0  0  0  0
  -36.6269   72.6548   25.7915 H   0  0  0  0  0  0  0  0  0  0  0  0
  -38.6439   72.3272   24.2794 H   0  0  0  0  0  0  0  0  0  0  0  0
  -37.5701   71.7057   28.5604 H   0  0  0  0  0  0  0  0  0  0  0  0
  -35.9417   72.4223   28.3657 H   0  0  0  0  0  0  0  0  0  0  0  0
  -34.8973   70.5269   30.1995 H   0  0  0  0  0  0  0  0  0  0  0  0
  -34.3158   68.7715   31.8429 H   0  0  0  0  0  0  0  0  0  0  0  0
  -33.6868   66.0194   28.6001 H   0  0  0  0  0  0  0  0  0  0  0  0
  3  1  2  0
  4  1  1  0
  6  1  1  0
  7  4  1  0
  9  8  2  0
  9  2  1  0
  9  7  1  0
 10  5  2  0
 10  2  1  0
 11 10  1  0
 12 11  2  0
 13 12  1  0
 14 13  2  0
 14  5  1  0
 15 13  1  0
  2 16  1  0
  4 17  1  0
  4 18  1  0
  6 19  1  0
  7 20  1  0
  7 21  1  0
 11 22  1  0
 12 23  1  0
 14 24  1  0
M  END
