
     RDKit          3D

 49 53  0  0  0  0  0  0  0  0999 V2000
   25.7402   43.1296   47.9015 C   0  0  0  0  0  0  0  0  0  0  0  0
   26.4625   42.1803   47.1438 C   0  0  0  0  0  0  0  0  0  0  0  0
   26.5501   42.2867   45.7541 C   0  0  0  0  0  0  0  0  0  0  0  0
   25.0980   44.2171   47.2440 C   0  0  0  0  0  0  0  0  0  0  0  0
   25.2014   44.2980   45.8462 C   0  0  0  0  0  0  0  0  0  0  0  0
   25.8965   43.3553   45.1274 C   0  0  0  0  0  0  0  0  0  0  0  0
   25.8306   43.6204   43.8026 N   0  0  0  0  0  0  0  0  0  0  0  0
   25.0986   44.7497   43.6489 C   0  0  0  0  0  0  0  0  0  0  0  0
   24.6940   45.1940   44.9045 C   0  0  0  0  0  0  0  0  0  0  0  0
   24.8089   45.4041   42.3479 C   0  0  0  0  0  0  0  0  0  0  0  0
   25.3691   45.0256   41.2854 O   0  0  0  0  0  0  0  0  0  0  0  0
   23.8804   46.4309   42.2900 O   0  0  0  0  0  0  0  0  0  0  0  0
   26.4629   42.8523   42.7381 C   0  0  0  0  0  0  0  0  0  0  0  0
   27.2951   43.7059   41.8204 C   0  0  0  0  0  0  0  0  0  0  0  0
   25.6894   42.9340   49.3965 C   0  0  0  0  0  0  0  0  0  0  0  0
   27.1699   43.4591   40.4529 C   0  0  0  0  0  0  0  0  0  0  0  0
   27.9454   44.1719   39.5454 C   0  0  0  0  0  0  0  0  0  0  0  0
   28.8314   45.1007   39.9827 N   0  0  0  0  0  0  0  0  0  0  0  0
   28.9934   45.3609   41.3065 C   0  0  0  0  0  0  0  0  0  0  0  0
   28.2315   44.6646   42.2582 C   0  0  0  0  0  0  0  0  0  0  0  0
   23.8903   46.3539   45.1426 N   0  0  0  0  0  0  0  0  0  0  0  0
   22.5717   46.1933   45.5265 C   0  0  0  0  0  0  0  0  0  0  0  0
   21.7457   47.2762   45.6100 N   0  0  0  0  0  0  0  0  0  0  0  0
   24.4005   47.5952   44.8435 C   0  0  0  0  0  0  0  0  0  0  0  0
   25.6065   47.7346   44.4831 O   0  0  0  0  0  0  0  0  0  0  0  0
   22.1137   45.0438   45.7970 O   0  0  0  0  0  0  0  0  0  0  0  0
   23.8625   50.0262   44.6253 C   0  0  0  0  0  0  0  0  0  0  0  0
   23.5477   48.7016   44.9155 C   0  0  0  0  0  0  0  0  0  0  0  0
   22.2176   48.5130   45.2997 C   0  0  0  0  0  0  0  0  0  0  0  0
   21.4604   49.6789   45.3235 C   0  0  0  0  0  0  0  0  0  0  0  0
   22.4672   50.9518   44.8558 S   0  0  0  0  0  0  0  0  0  0  0  0
   29.9497   46.3342   41.7156 N   0  0  0  0  0  0  0  0  0  0  0  0
   25.1590   41.6926   49.6845 F   0  0  0  0  0  0  0  0  0  0  0  0
   26.9642   42.9910   49.9190 F   0  0  0  0  0  0  0  0  0  0  0  0
   24.9248   43.8913   50.0253 F   0  0  0  0  0  0  0  0  0  0  0  0
   26.9612   41.3544   47.6367 H   0  0  0  0  0  0  0  0  0  0  0  0
   27.1174   41.5502   45.2051 H   0  0  0  0  0  0  0  0  0  0  0  0
   24.5378   44.9624   47.7936 H   0  0  0  0  0  0  0  0  0  0  0  0
   23.0346   46.3390   41.7403 H   0  0  0  0  0  0  0  0  0  0  0  0
   27.1084   42.0546   43.1540 H   0  0  0  0  0  0  0  0  0  0  0  0
   25.6925   42.3012   42.1618 H   0  0  0  0  0  0  0  0  0  0  0  0
   26.4746   42.7139   40.0845 H   0  0  0  0  0  0  0  0  0  0  0  0
   27.8451   43.9848   38.4846 H   0  0  0  0  0  0  0  0  0  0  0  0
   28.3808   44.8624   43.3115 H   0  0  0  0  0  0  0  0  0  0  0  0
   20.7479   47.1526   45.8972 H   0  0  0  0  0  0  0  0  0  0  0  0
   24.8264   50.3997   44.3055 H   0  0  0  0  0  0  0  0  0  0  0  0
   20.4147   49.7567   45.5899 H   0  0  0  0  0  0  0  0  0  0  0  0
   30.0962   46.5511   42.7268 H   0  0  0  0  0  0  0  0  0  0  0  0
   30.5174   46.8459   41.0042 H   0  0  0  0  0  0  0  0  0  0  0  0
  2  1  2  0
  3  2  1  0
  4  1  1  0
  5  4  2  0
  6  3  2  0
  6  5  1  0
  7  6  1  0
  8  7  1  0
  9  8  2  0
  9  5  1  0
 10  8  1  0
 11 10  2  0
 12 10  1  0
 13  7  1  0
 14 13  1  0
 15  1  1  0
 16 14  2  0
 17 16  1  0
 18 17  2  0
 19 18  1  0
 20 14  1  0
 20 19  2  0
 21  9  1  0
 22 21  1  0
 23 22  1  0
 24 21  1  0
 25 24  2  0
 26 22  2  0
 28 24  1  0
 28 27  2  0
 29 23  1  0
 29 28  1  0
 30 29  2  0
 31 30  1  0
 31 27  1  0
 32 19  1  0
 15 33  1  0
 34 15  1  0
 35 15  1  0
  2 36  1  0
  3 37  1  0
  4 38  1  0
 12 39  1  0
 13 40  1  0
 13 41  1  0
 16 42  1  0
 17 43  1  0
 20 44  1  0
 23 45  1  0
 27 46  1  0
 30 47  1  0
 32 48  1  0
 32 49  1  0
M  END
