
     RDKit          3D

 49 51  0  0  0  0  0  0  0  0999 V2000
  -10.6230  -14.7919  -25.0291 P   0  0  2  0  0  0  0  0  0  0  0  0
   -7.8669  -14.8339  -24.5777 P   0  0  1  0  0  0  0  0  0  0  0  0
   -6.3276  -14.4853  -22.1219 P   0  0  0  0  0  0  0  0  0  0  0  0
  -11.6256  -12.4569  -24.9217 C   0  0  0  0  0  0  0  0  0  0  0  0
  -11.7017  -13.6667  -25.6387 O   0  0  0  0  0  0  0  0  0  0  0  0
  -12.8547  -11.6349  -25.3160 C   0  0  1  0  0  0  0  0  0  0  0  0
  -12.7748  -11.3340  -26.6975 O   0  0  0  0  0  0  0  0  0  0  0  0
  -14.1569  -12.4153  -25.0509 C   0  0  1  0  0  0  0  0  0  0  0  0
  -15.1692  -11.5315  -24.6446 O   0  0  0  0  0  0  0  0  0  0  0  0
  -14.4652  -12.9862  -26.4178 C   0  0  1  0  0  0  0  0  0  0  0  0
  -15.8309  -13.2262  -26.6518 O   0  0  0  0  0  0  0  0  0  0  0  0
  -13.8862  -11.9183  -27.3344 C   0  0  2  0  0  0  0  0  0  0  0  0
  -14.4387  -11.7033  -32.4213 N   0  0  0  0  0  0  0  0  0  0  0  0
  -10.7452  -16.0447  -25.8612 O   0  0  0  0  0  0  0  0  0  0  0  0
   -6.7054  -14.5883  -25.5074 O   0  0  0  0  0  0  0  0  0  0  0  0
   -6.3740  -13.6871  -20.8410 O   0  0  0  0  0  0  0  0  0  0  0  0
  -15.0720  -10.9622  -31.4511 C   0  0  0  0  0  0  0  0  0  0  0  0
  -16.0220   -9.9754  -31.8227 N   0  0  0  0  0  0  0  0  0  0  0  0
  -11.0007  -15.0757  -23.4165 O   0  0  0  0  0  0  0  0  0  0  0  0
   -8.0945  -16.4823  -24.3653 O   0  0  0  0  0  0  0  0  0  0  0  0
   -6.4328  -16.1246  -21.7824 O   0  0  0  0  0  0  0  0  0  0  0  0
  -14.7976  -11.1657  -30.1319 N   0  0  0  0  0  0  0  0  0  0  0  0
   -7.6825  -13.9754  -23.0743 N   0  0  0  0  0  0  0  0  0  0  0  0
   -9.1480  -14.0457  -25.3011 O   0  0  0  0  0  0  0  0  0  0  0  0
   -4.8991  -14.1492  -22.9293 O   0  0  0  0  0  0  0  0  0  0  0  0
  -13.8897  -12.1211  -29.8252 C   0  0  0  0  0  0  0  0  0  0  0  0
  -13.2491  -12.8676  -30.7562 C   0  0  0  0  0  0  0  0  0  0  0  0
  -13.5195  -12.6630  -32.1026 C   0  0  0  0  0  0  0  0  0  0  0  0
  -12.9465  -13.3292  -33.0068 O   0  0  0  0  0  0  0  0  0  0  0  0
  -12.3954  -13.7316  -30.1692 N   0  0  0  0  0  0  0  0  0  0  0  0
  -12.5592  -13.4607  -28.8486 C   0  0  0  0  0  0  0  0  0  0  0  0
  -13.4745  -12.4841  -28.6119 N   0  0  0  0  0  0  0  0  0  0  0  0
  -11.6478  -12.6173  -23.8192 H   0  0  0  0  0  0  0  0  0  0  0  0
  -10.7045  -11.8983  -25.1989 H   0  0  0  0  0  0  0  0  0  0  0  0
  -12.8419  -10.6852  -24.7370 H   0  0  0  0  0  0  0  0  0  0  0  0
  -14.0378  -13.2340  -24.3017 H   0  0  0  0  0  0  0  0  0  0  0  0
  -15.0100  -11.3442  -23.6828 H   0  0  0  0  0  0  0  0  0  0  0  0
  -13.9324  -13.9517  -26.5422 H   0  0  0  0  0  0  0  0  0  0  0  0
  -16.1413  -12.6328  -27.3840 H   0  0  0  0  0  0  0  0  0  0  0  0
  -14.6355  -11.1118  -27.5026 H   0  0  0  0  0  0  0  0  0  0  0  0
  -14.6628  -11.5299  -33.4276 H   0  0  0  0  0  0  0  0  0  0  0  0
  -16.8263   -9.7451  -31.1980 H   0  0  0  0  0  0  0  0  0  0  0  0
  -15.9260   -9.4665  -32.7294 H   0  0  0  0  0  0  0  0  0  0  0  0
  -11.7582  -14.4675  -23.2238 H   0  0  0  0  0  0  0  0  0  0  0  0
   -8.6929  -16.5635  -23.5811 H   0  0  0  0  0  0  0  0  0  0  0  0
   -7.0896  -16.1889  -21.0438 H   0  0  0  0  0  0  0  0  0  0  0  0
   -7.5362  -12.9680  -23.3094 H   0  0  0  0  0  0  0  0  0  0  0  0
   -4.9386  -13.1792  -23.1255 H   0  0  0  0  0  0  0  0  0  0  0  0
  -12.0091  -13.9765  -28.0773 H   0  0  0  0  0  0  0  0  0  0  0  0
  5  4  1  0
  1  5  1  6
  6  4  1  0
  7  6  1  0
  8  6  1  0
  8  9  1  0
 10  8  1  0
 10 11  1  0
 12 10  1  0
 12  7  1  0
 14  1  2  0
 15  2  2  0
 16  3  2  0
 17 13  1  0
 18 17  1  0
 19  1  1  0
  2 20  1  1
 21  3  1  0
 22 17  2  0
 23  3  1  0
 23  2  1  0
 24  2  1  0
 24  1  1  0
 25  3  1  0
 26 22  1  0
 27 26  2  0
 28 13  1  0
 28 27  1  0
 29 28  2  0
 30 27  1  0
 31 30  2  0
 32 31  1  0
 32 26  1  0
 12 32  1  0
  4 33  1  0
  4 34  1  0
  6 35  1  1
  8 36  1  1
  9 37  1  0
 10 38  1  1
 11 39  1  0
 12 40  1  6
 13 41  1  0
 18 42  1  0
 18 43  1  0
 19 44  1  0
 20 45  1  0
 21 46  1  0
 23 47  1  0
 25 48  1  0
 31 49  1  0
M  END
