
     RDKit          3D

 50 53  0  0  0  0  0  0  0  0999 V2000
    6.2946   43.8823   51.2056 N   0  0  0  0  0  0  0  0  0  0  0  0
    7.2885   43.2485   50.5207 C   0  0  0  0  0  0  0  0  0  0  0  0
    6.9943   42.1887   49.6390 N   0  0  0  0  0  0  0  0  0  0  0  0
    8.5827   43.6264   50.6727 N   0  0  0  0  0  0  0  0  0  0  0  0
    8.8587   44.6285   51.5290 C   0  0  0  0  0  0  0  0  0  0  0  0
    7.8994   45.2688   52.2448 C   0  0  0  0  0  0  0  0  0  0  0  0
    6.5594   44.8876   52.0842 C   0  0  0  0  0  0  0  0  0  0  0  0
    5.5140   45.4711   52.7877 O   0  0  0  0  0  0  0  0  0  0  0  0
    8.4669   46.2108   53.0270 N   0  0  0  0  0  0  0  0  0  0  0  0
    9.7957   46.0859   52.7283 C   0  0  0  0  0  0  0  0  0  0  0  0
   10.0657   45.1206   51.8130 N   0  0  0  0  0  0  0  0  0  0  0  0
    4.1715   45.0400   52.5729 C   0  0  0  0  0  0  0  0  0  0  0  0
    3.3152   45.4512   53.7558 C   0  0  0  0  0  0  0  0  0  0  0  0
    1.8910   45.7766   53.2802 C   0  0  0  0  0  0  0  0  0  0  0  0
    1.0183   46.1855   54.4675 C   0  0  0  0  0  0  0  0  0  0  0  0
    0.9971   45.0882   55.5390 C   0  0  0  0  0  0  0  0  0  0  0  0
    2.4132   44.7192   55.9974 C   0  0  0  0  0  0  0  0  0  0  0  0
    3.2905   44.3255   54.8087 C   0  0  0  0  0  0  0  0  0  0  0  0
    4.9125   41.3299   50.6630 C   0  0  0  0  0  0  0  0  0  0  0  0
    3.6731   40.7111   50.5003 C   0  0  0  0  0  0  0  0  0  0  0  0
    3.2442   40.3458   49.2256 C   0  0  0  0  0  0  0  0  0  0  0  0
    4.0604   40.6015   48.1215 C   0  0  0  0  0  0  0  0  0  0  0  0
    5.2851   41.2250   48.2769 C   0  0  0  0  0  0  0  0  0  0  0  0
    5.7108   41.5992   49.5364 C   0  0  0  0  0  0  0  0  0  0  0  0
    3.5471   40.1515   46.5467 S   0  0  0  0  0  0  0  0  0  0  0  0
    2.5941   41.1709   46.0024 O   0  0  0  0  0  0  0  0  0  0  0  0
    2.8709   38.8219   46.6401 O   0  0  0  0  0  0  0  0  0  0  0  0
    4.9277   40.0665   45.5344 N   0  0  0  0  0  0  0  0  0  0  0  0
    7.7418   41.8885   48.9716 H   0  0  0  0  0  0  0  0  0  0  0  0
   10.5620   46.6992   53.1836 H   0  0  0  0  0  0  0  0  0  0  0  0
   10.9928   44.8332   51.4287 H   0  0  0  0  0  0  0  0  0  0  0  0
    3.7909   45.5072   51.6381 H   0  0  0  0  0  0  0  0  0  0  0  0
    4.1241   43.9328   52.4616 H   0  0  0  0  0  0  0  0  0  0  0  0
    3.7612   46.3663   54.2083 H   0  0  0  0  0  0  0  0  0  0  0  0
    1.9180   46.6161   52.5514 H   0  0  0  0  0  0  0  0  0  0  0  0
    1.4395   44.8935   52.7747 H   0  0  0  0  0  0  0  0  0  0  0  0
    1.4038   47.1310   54.9089 H   0  0  0  0  0  0  0  0  0  0  0  0
   -0.0185   46.3718   54.1136 H   0  0  0  0  0  0  0  0  0  0  0  0
    0.4916   44.1841   55.1336 H   0  0  0  0  0  0  0  0  0  0  0  0
    0.4102   45.4422   56.4136 H   0  0  0  0  0  0  0  0  0  0  0  0
    2.3585   43.8698   56.7121 H   0  0  0  0  0  0  0  0  0  0  0  0
    2.8695   45.5840   56.5277 H   0  0  0  0  0  0  0  0  0  0  0  0
    4.3195   44.1272   55.1799 H   0  0  0  0  0  0  0  0  0  0  0  0
    2.8995   43.3850   54.3598 H   0  0  0  0  0  0  0  0  0  0  0  0
    5.2573   41.5555   51.6630 H   0  0  0  0  0  0  0  0  0  0  0  0
    3.0536   40.5013   51.3627 H   0  0  0  0  0  0  0  0  0  0  0  0
    2.2823   39.8643   49.1030 H   0  0  0  0  0  0  0  0  0  0  0  0
    5.9168   41.4272   47.4207 H   0  0  0  0  0  0  0  0  0  0  0  0
    5.7052   39.6627   46.1031 H   0  0  0  0  0  0  0  0  0  0  0  0
    4.7140   39.3704   44.7854 H   0  0  0  0  0  0  0  0  0  0  0  0
  2  1  2  0
  3  2  1  0
  4  2  1  0
  5  4  2  0
  6  5  1  0
  7  6  2  0
  7  1  1  0
  8  7  1  0
  9  6  1  0
 10  9  2  0
 11 10  1  0
 11  5  1  0
 12  8  1  0
 13 12  1  0
 14 13  1  0
 15 14  1  0
 16 15  1  0
 17 16  1  0
 18 13  1  0
 18 17  1  0
 20 19  2  0
 21 20  1  0
 22 21  2  0
 23 22  1  0
 24 23  2  0
 24  3  1  0
 24 19  1  0
 25 22  1  0
 26 25  2  0
 27 25  2  0
 25 28  1  0
  3 29  1  0
 10 30  1  0
 11 31  1  0
 12 32  1  0
 12 33  1  0
 13 34  1  0
 14 35  1  0
 14 36  1  0
 15 37  1  0
 15 38  1  0
 16 39  1  0
 16 40  1  0
 17 41  1  0
 17 42  1  0
 18 43  1  0
 18 44  1  0
 19 45  1  0
 20 46  1  0
 21 47  1  0
 23 48  1  0
 28 49  1  0
 28 50  1  0
M  END
