
     RDKit          3D

 50 53  0  0  0  0  0  0  0  0999 V2000
   33.2817   86.1972   43.6485 N   0  0  0  0  0  0  0  0  0  0  0  0
   33.0102   86.4831   44.9549 C   0  0  0  0  0  0  0  0  0  0  0  0
   32.7489   87.8134   45.3571 N   0  0  0  0  0  0  0  0  0  0  0  0
   32.9775   85.4920   45.8869 N   0  0  0  0  0  0  0  0  0  0  0  0
   33.2514   84.2320   45.4853 C   0  0  0  0  0  0  0  0  0  0  0  0
   33.5562   83.9201   44.1979 C   0  0  0  0  0  0  0  0  0  0  0  0
   33.5684   84.9339   43.2298 C   0  0  0  0  0  0  0  0  0  0  0  0
   33.8494   84.7017   41.8845 O   0  0  0  0  0  0  0  0  0  0  0  0
   33.7851   82.5950   44.0904 N   0  0  0  0  0  0  0  0  0  0  0  0
   33.6039   82.1535   45.3713 C   0  0  0  0  0  0  0  0  0  0  0  0
   33.2755   83.1358   46.2490 N   0  0  0  0  0  0  0  0  0  0  0  0
   34.1194   85.7958   41.0060 C   0  0  0  0  0  0  0  0  0  0  0  0
   34.4061   85.2896   39.6004 C   0  0  0  0  0  0  0  0  0  0  0  0
   34.6802   86.4815   38.6630 C   0  0  0  0  0  0  0  0  0  0  0  0
   35.0210   85.9937   37.2523 C   0  0  0  0  0  0  0  0  0  0  0  0
   36.2088   85.0242   37.2771 C   0  0  0  0  0  0  0  0  0  0  0  0
   35.9387   83.8419   38.2134 C   0  0  0  0  0  0  0  0  0  0  0  0
   35.6127   84.3327   39.6232 C   0  0  0  0  0  0  0  0  0  0  0  0
   34.6379   89.2277   44.5831 C   0  0  0  0  0  0  0  0  0  0  0  0
   35.0772   90.3803   43.9291 C   0  0  0  0  0  0  0  0  0  0  0  0
   34.1473   91.2672   43.3902 C   0  0  0  0  0  0  0  0  0  0  0  0
   32.7829   90.9915   43.5061 C   0  0  0  0  0  0  0  0  0  0  0  0
   32.3432   89.8430   44.1447 C   0  0  0  0  0  0  0  0  0  0  0  0
   33.2591   88.9522   44.6743 C   0  0  0  0  0  0  0  0  0  0  0  0
   31.6203   92.0803   42.8615 S   0  0  0  0  0  0  0  0  0  0  0  0
   30.2454   91.5097   43.0221 O   0  0  0  0  0  0  0  0  0  0  0  0
   31.9093   92.2846   41.4093 O   0  0  0  0  0  0  0  0  0  0  0  0
   31.7206   93.5600   43.7207 N   0  0  0  0  0  0  0  0  0  0  0  0
   32.0949   87.9582   46.1604 H   0  0  0  0  0  0  0  0  0  0  0  0
   33.7116   81.1159   45.6581 H   0  0  0  0  0  0  0  0  0  0  0  0
   33.0882   83.0528   47.2727 H   0  0  0  0  0  0  0  0  0  0  0  0
   33.2394   86.4756   40.9938 H   0  0  0  0  0  0  0  0  0  0  0  0
   35.0040   86.3691   41.3657 H   0  0  0  0  0  0  0  0  0  0  0  0
   33.5094   84.7390   39.2358 H   0  0  0  0  0  0  0  0  0  0  0  0
   33.7802   87.1323   38.6097 H   0  0  0  0  0  0  0  0  0  0  0  0
   35.5250   87.0929   39.0523 H   0  0  0  0  0  0  0  0  0  0  0  0
   34.1356   85.4883   36.8073 H   0  0  0  0  0  0  0  0  0  0  0  0
   35.2735   86.8668   36.6129 H   0  0  0  0  0  0  0  0  0  0  0  0
   37.1238   85.5629   37.6088 H   0  0  0  0  0  0  0  0  0  0  0  0
   36.3911   84.6428   36.2495 H   0  0  0  0  0  0  0  0  0  0  0  0
   36.8383   83.1904   38.2499 H   0  0  0  0  0  0  0  0  0  0  0  0
   35.0923   83.2368   37.8199 H   0  0  0  0  0  0  0  0  0  0  0  0
   35.3870   83.4479   40.2572 H   0  0  0  0  0  0  0  0  0  0  0  0
   36.5040   84.8441   40.0512 H   0  0  0  0  0  0  0  0  0  0  0  0
   35.3720   88.5860   45.0504 H   0  0  0  0  0  0  0  0  0  0  0  0
   36.1358   90.5947   43.8588 H   0  0  0  0  0  0  0  0  0  0  0  0
   34.4891   92.1651   42.8908 H   0  0  0  0  0  0  0  0  0  0  0  0
   31.2854   89.6311   44.2376 H   0  0  0  0  0  0  0  0  0  0  0  0
   31.3175   94.3017   43.1055 H   0  0  0  0  0  0  0  0  0  0  0  0
   31.0852   93.4773   44.5458 H   0  0  0  0  0  0  0  0  0  0  0  0
  2  1  2  0
  3  2  1  0
  4  2  1  0
  5  4  2  0
  6  5  1  0
  7  6  2  0
  7  1  1  0
  8  7  1  0
  9  6  1  0
 10  9  2  0
 11 10  1  0
 11  5  1  0
 12  8  1  0
 13 12  1  0
 14 13  1  0
 15 14  1  0
 16 15  1  0
 17 16  1  0
 18 17  1  0
 18 13  1  0
 20 19  2  0
 21 20  1  0
 22 21  2  0
 23 22  1  0
 24  3  1  0
 24 23  2  0
 24 19  1  0
 25 22  1  0
 26 25  2  0
 27 25  2  0
 25 28  1  0
  3 29  1  0
 10 30  1  0
 11 31  1  0
 12 32  1  0
 12 33  1  0
 13 34  1  0
 14 35  1  0
 14 36  1  0
 15 37  1  0
 15 38  1  0
 16 39  1  0
 16 40  1  0
 17 41  1  0
 17 42  1  0
 18 43  1  0
 18 44  1  0
 19 45  1  0
 20 46  1  0
 21 47  1  0
 23 48  1  0
 28 49  1  0
 28 50  1  0
M  END
