
     RDKit          3D

 34 35  0  0  0  0  0  0  0  0999 V2000
   -9.4962   -1.0549   35.0719 P   0  0  0  0  0  0  0  0  0  0  0  0
   -8.0684   -0.7594   34.6652 O   0  0  0  0  0  0  0  0  0  0  0  0
  -10.2016    0.3212   35.7378 O   0  0  0  0  0  0  0  0  0  0  0  0
  -10.4090   -1.5250   33.7381 O   0  0  0  0  0  0  0  0  0  0  0  0
   -8.7109   -3.2967   36.0810 C   0  0  0  0  0  0  0  0  0  0  0  0
   -9.6194   -2.2461   36.2731 O   0  0  0  0  0  0  0  0  0  0  0  0
   -7.3370   -2.6628   35.7585 C   0  0  1  0  0  0  0  0  0  0  0  0
   -6.3037   -3.6178   35.9262 O   0  0  0  0  0  0  0  0  0  0  0  0
   -7.2731   -2.1356   34.3141 C   0  0  1  0  0  0  0  0  0  0  0  0
   -6.4379   -0.9984   34.2127 O   0  0  0  0  0  0  0  0  0  0  0  0
   -6.6763   -3.3165   33.5898 C   0  0  1  0  0  0  0  0  0  0  0  0
   -6.0526   -2.9549   32.3820 O   0  0  0  0  0  0  0  0  0  0  0  0
   -5.7132   -3.8477   34.6593 C   0  0  2  0  0  0  0  0  0  0  0  0
   -5.3887   -5.2812   34.5056 N   0  0  0  0  0  0  0  0  0  0  0  0
   -6.3654   -6.2469   34.5712 C   0  0  0  0  0  0  0  0  0  0  0  0
   -7.5795   -5.9281   34.6559 O   0  0  0  0  0  0  0  0  0  0  0  0
   -6.0312   -7.5674   34.5678 N   0  0  0  0  0  0  0  0  0  0  0  0
   -4.7317   -7.9621   34.5133 C   0  0  0  0  0  0  0  0  0  0  0  0
   -4.4417   -9.1869   34.5340 O   0  0  0  0  0  0  0  0  0  0  0  0
   -3.7210   -7.0103   34.4367 C   0  0  0  0  0  0  0  0  0  0  0  0
   -4.0733   -5.6625   34.4296 C   0  0  0  0  0  0  0  0  0  0  0  0
  -10.1697    0.1751   36.7169 H   0  0  0  0  0  0  0  0  0  0  0  0
  -11.2840   -1.0767   33.8580 H   0  0  0  0  0  0  0  0  0  0  0  0
   -8.6239   -3.9104   37.0053 H   0  0  0  0  0  0  0  0  0  0  0  0
   -9.0508   -3.9265   35.2368 H   0  0  0  0  0  0  0  0  0  0  0  0
   -7.1689   -1.8282   36.4751 H   0  0  0  0  0  0  0  0  0  0  0  0
   -8.2727   -1.8829   33.8980 H   0  0  0  0  0  0  0  0  0  0  0  0
   -5.6302   -1.1273   34.7744 H   0  0  0  0  0  0  0  0  0  0  0  0
   -7.4812   -4.0419   33.3553 H   0  0  0  0  0  0  0  0  0  0  0  0
   -5.2245   -2.4476   32.5846 H   0  0  0  0  0  0  0  0  0  0  0  0
   -4.7742   -3.2487   34.6330 H   0  0  0  0  0  0  0  0  0  0  0  0
   -6.7853   -8.2901   34.6236 H   0  0  0  0  0  0  0  0  0  0  0  0
   -2.6798   -7.3051   34.3906 H   0  0  0  0  0  0  0  0  0  0  0  0
   -3.2815   -4.9239   34.3890 H   0  0  0  0  0  0  0  0  0  0  0  0
  2  1  2  0
  3  1  1  0
  4  1  1  0
  6  1  1  0
  6  5  1  0
  7  5  1  0
  8  7  1  0
  9  7  1  0
  9 10  1  0
 11  9  1  0
 11 12  1  0
 13 11  1  0
 13  8  1  0
 13 14  1  0
 15 14  1  0
 16 15  2  0
 17 15  1  0
 18 17  1  0
 19 18  2  0
 20 18  1  0
 21 20  2  0
 21 14  1  0
  3 22  1  0
  4 23  1  0
  5 24  1  0
  5 25  1  0
  7 26  1  1
  9 27  1  6
 10 28  1  0
 11 29  1  6
 12 30  1  0
 13 31  1  1
 17 32  1  0
 20 33  1  0
 21 34  1  0
M  END
