
     RDKit          3D

 34 35  0  0  0  0  0  0  0  0999 V2000
   14.6802    0.5532   13.8497 P   0  0  0  0  0  0  0  0  0  0  0  0
   15.5486    1.6372   14.4466 O   0  0  0  0  0  0  0  0  0  0  0  0
   14.8278    0.5718   12.1733 O   0  0  0  0  0  0  0  0  0  0  0  0
   15.1734   -0.9495   14.4310 O   0  0  0  0  0  0  0  0  0  0  0  0
   12.2374   -0.2211   14.1100 C   0  0  0  0  0  0  0  0  0  0  0  0
   13.0754    0.8963   14.2676 O   0  0  0  0  0  0  0  0  0  0  0  0
   10.8345    0.2047   14.5891 C   0  0  1  0  0  0  0  0  0  0  0  0
   10.0626   -0.9303   14.9361 O   0  0  0  0  0  0  0  0  0  0  0  0
   10.9305    1.1238   15.8143 C   0  0  1  0  0  0  0  0  0  0  0  0
    9.8583    2.0368   15.8214 O   0  0  0  0  0  0  0  0  0  0  0  0
   10.7836    0.1357   16.9426 C   0  0  1  0  0  0  0  0  0  0  0  0
   10.2624    0.7350   18.0974 O   0  0  0  0  0  0  0  0  0  0  0  0
    9.7980   -0.8588   16.3237 C   0  0  2  0  0  0  0  0  0  0  0  0
    9.8562   -2.2141   16.9209 N   0  0  0  0  0  0  0  0  0  0  0  0
   10.6751   -3.1977   16.4117 C   0  0  0  0  0  0  0  0  0  0  0  0
   11.4789   -2.9477   15.4759 O   0  0  0  0  0  0  0  0  0  0  0  0
   10.6208   -4.4664   16.9069 N   0  0  0  0  0  0  0  0  0  0  0  0
    9.7546   -4.7972   17.9006 C   0  0  0  0  0  0  0  0  0  0  0  0
    9.7041   -5.9805   18.3281 O   0  0  0  0  0  0  0  0  0  0  0  0
    8.9184   -3.8268   18.4407 C   0  0  0  0  0  0  0  0  0  0  0  0
    8.9845   -2.5306   17.9325 C   0  0  0  0  0  0  0  0  0  0  0  0
   14.3770    1.4058   11.8874 H   0  0  0  0  0  0  0  0  0  0  0  0
   15.0877   -0.8810   15.4154 H   0  0  0  0  0  0  0  0  0  0  0  0
   12.1831   -0.5191   13.0397 H   0  0  0  0  0  0  0  0  0  0  0  0
   12.6071   -1.0679   14.7204 H   0  0  0  0  0  0  0  0  0  0  0  0
   10.3280    0.7349   13.7520 H   0  0  0  0  0  0  0  0  0  0  0  0
   11.8994    1.6688   15.9018 H   0  0  0  0  0  0  0  0  0  0  0  0
   10.0740    2.7170   16.5114 H   0  0  0  0  0  0  0  0  0  0  0  0
   11.7700   -0.3193   17.1721 H   0  0  0  0  0  0  0  0  0  0  0  0
    9.3717    0.3244   18.2520 H   0  0  0  0  0  0  0  0  0  0  0  0
    8.7724   -0.4345   16.4373 H   0  0  0  0  0  0  0  0  0  0  0  0
   11.2472   -5.2024   16.5069 H   0  0  0  0  0  0  0  0  0  0  0  0
    8.2208   -4.0702   19.2328 H   0  0  0  0  0  0  0  0  0  0  0  0
    8.3162   -1.7834   18.3436 H   0  0  0  0  0  0  0  0  0  0  0  0
  2  1  2  0
  3  1  1  0
  4  1  1  0
  6  5  1  0
  6  1  1  0
  7  5  1  0
  8  7  1  0
  9  7  1  0
  9 10  1  0
 11  9  1  0
 11 12  1  0
 13  8  1  0
 13 11  1  0
 13 14  1  0
 15 14  1  0
 16 15  2  0
 17 15  1  0
 18 17  1  0
 19 18  2  0
 20 18  1  0
 21 20  2  0
 21 14  1  0
  3 22  1  0
  4 23  1  0
  5 24  1  0
  5 25  1  0
  7 26  1  6
  9 27  1  1
 10 28  1  0
 11 29  1  1
 12 30  1  0
 13 31  1  6
 17 32  1  0
 20 33  1  0
 21 34  1  0
M  END
