
     RDKit          3D

 27 27  0  0  0  0  0  0  0  0999 V2000
   19.9057    8.4660   12.4610 C   0  0  0  0  0  0  0  0  0  0  0  0
   19.9148    6.9438   12.5116 C   0  0  0  0  0  0  0  0  0  0  0  0
   17.4738    5.2966   14.7113 C   0  0  0  0  0  0  0  0  0  0  0  0
   15.9252    0.3302   15.3285 O   0  0  0  0  0  0  0  0  0  0  0  0
   17.4538    2.9240   15.2089 C   0  0  0  0  0  0  0  0  0  0  0  0
   15.2844    1.4323   17.4423 O   0  0  0  0  0  0  0  0  0  0  0  0
   18.1436    4.0664   14.8210 C   0  0  0  0  0  0  0  0  0  0  0  0
   13.6541    1.6496   15.3847 N   0  0  0  0  0  0  0  0  0  0  0  0
   16.0898    2.9849   15.4789 C   0  0  0  0  0  0  0  0  0  0  0  0
   16.1061    5.3560   15.0254 C   0  0  0  0  0  0  0  0  0  0  0  0
   15.4167    4.2095   15.4096 C   0  0  0  0  0  0  0  0  0  0  0  0
   18.1778    6.5192   14.2764 C   0  0  0  0  0  0  0  0  0  0  0  0
   19.5348    6.4727   13.8327 N   0  0  0  0  0  0  0  0  0  0  0  0
   17.5655    7.6219   14.2717 O   0  0  0  0  0  0  0  0  0  0  0  0
   21.0633    8.9803   13.0009 F   0  0  0  0  0  0  0  0  0  0  0  0
   18.8512    8.9976   13.1658 F   0  0  0  0  0  0  0  0  0  0  0  0
   19.8103    8.8483   11.1431 F   0  0  0  0  0  0  0  0  0  0  0  0
   15.2643    1.5333   15.9468 S   0  0  0  0  0  0  0  0  0  0  0  0
   20.9441    6.5909   12.2805 H   0  0  0  0  0  0  0  0  0  0  0  0
   19.2440    6.5238   11.7307 H   0  0  0  0  0  0  0  0  0  0  0  0
   17.9869    1.9847   15.2930 H   0  0  0  0  0  0  0  0  0  0  0  0
   19.2028    3.9611   14.6530 H   0  0  0  0  0  0  0  0  0  0  0  0
   13.6417    1.2795   14.4076 H   0  0  0  0  0  0  0  0  0  0  0  0
   13.0817    0.9922   15.9604 H   0  0  0  0  0  0  0  0  0  0  0  0
   15.5612    6.2899   14.9649 H   0  0  0  0  0  0  0  0  0  0  0  0
   14.3639    4.2863   15.6446 H   0  0  0  0  0  0  0  0  0  0  0  0
   20.2410    5.8841   14.3224 H   0  0  0  0  0  0  0  0  0  0  0  0
  2  1  1  0
  7  5  1  0
  7  3  2  0
  9  5  2  0
 10  3  1  0
 11 10  2  0
 11  9  1  0
 12  3  1  0
 13 12  1  0
 13  2  1  0
 14 12  2  0
  1 15  1  0
 16  1  1  0
 17  1  1  0
 18  9  1  0
 18  6  2  0
 18  8  1  0
 18  4  2  0
  2 19  1  0
  2 20  1  0
  5 21  1  0
  7 22  1  0
  8 23  1  0
  8 24  1  0
 10 25  1  0
 11 26  1  0
 13 27  1  0
M  END
