
     RDKit          3D

 27 28  0  0  0  0  0  0  0  0999 V2000
  -44.3380   15.2541   67.9832 N   0  0  0  0  0  0  0  0  0  0  0  0
  -44.5942   17.9348   68.5729 C   0  0  0  0  0  0  0  0  0  0  0  0
  -43.3479   17.4212   68.1591 C   0  0  0  0  0  0  0  0  0  0  0  0
  -43.2445   16.0490   67.8786 C   0  0  0  0  0  0  0  0  0  0  0  0
  -45.7022   17.0950   68.6796 C   0  0  0  0  0  0  0  0  0  0  0  0
  -45.5444   15.7387   68.3724 C   0  0  0  0  0  0  0  0  0  0  0  0
  -46.6157   14.8735   68.4618 O   0  0  0  0  0  0  0  0  0  0  0  0
  -42.1558   18.3543   68.0935 C   0  0  2  0  0  0  0  0  0  0  0  0
  -41.8315   19.1049   69.3761 C   0  0  0  0  0  0  0  0  0  0  0  0
  -41.0176   20.3023   68.8745 C   0  0  0  0  0  0  0  0  0  0  0  0
  -41.1792   20.3034   67.3538 C   0  0  0  0  0  0  0  0  0  0  0  0
  -42.3108   19.4067   67.0902 N   0  0  0  0  0  0  0  0  0  0  0  0
  -42.3085   18.8853   65.7196 C   0  0  0  0  0  0  0  0  0  0  0  0
  -44.7070   18.9835   68.8186 H   0  0  0  0  0  0  0  0  0  0  0  0
  -42.2996   15.6028   67.6033 H   0  0  0  0  0  0  0  0  0  0  0  0
  -46.6615   17.4848   68.9952 H   0  0  0  0  0  0  0  0  0  0  0  0
  -47.0633   14.6863   69.3513 H   0  0  0  0  0  0  0  0  0  0  0  0
  -41.2479   17.7453   67.8548 H   0  0  0  0  0  0  0  0  0  0  0  0
  -41.2388   18.4733   70.0734 H   0  0  0  0  0  0  0  0  0  0  0  0
  -42.7407   19.4717   69.8951 H   0  0  0  0  0  0  0  0  0  0  0  0
  -39.9458   20.1928   69.1497 H   0  0  0  0  0  0  0  0  0  0  0  0
  -41.4114   21.2465   69.3107 H   0  0  0  0  0  0  0  0  0  0  0  0
  -40.2433   19.9326   66.8739 H   0  0  0  0  0  0  0  0  0  0  0  0
  -41.4071   21.3255   66.9820 H   0  0  0  0  0  0  0  0  0  0  0  0
  -43.3174   18.4969   65.4632 H   0  0  0  0  0  0  0  0  0  0  0  0
  -41.5958   18.0380   65.6355 H   0  0  0  0  0  0  0  0  0  0  0  0
  -42.0300   19.6724   64.9841 H   0  0  0  0  0  0  0  0  0  0  0  0
  3  2  2  0
  4  1  2  0
  4  3  1  0
  5  2  1  0
  6  1  1  0
  6  5  2  0
  7  6  1  0
  8  3  1  0
  9  8  1  0
 10  9  1  0
 11 10  1  0
 12 11  1  0
 12  8  1  0
 13 12  1  0
  2 14  1  0
  4 15  1  0
  5 16  1  0
  7 17  1  0
  8 18  1  6
  9 19  1  0
  9 20  1  0
 10 21  1  0
 10 22  1  0
 11 23  1  0
 11 24  1  0
 13 25  1  0
 13 26  1  0
 13 27  1  0
M  END
