
     RDKit          3D

 27 28  0  0  0  0  0  0  0  0999 V2000
  -44.2847   16.3336   67.1491 N   0  0  0  0  0  0  0  0  0  0  0  0
  -44.5408   19.0142   67.7388 C   0  0  0  0  0  0  0  0  0  0  0  0
  -43.2946   18.5007   67.3250 C   0  0  0  0  0  0  0  0  0  0  0  0
  -43.1912   17.1284   67.0445 C   0  0  0  0  0  0  0  0  0  0  0  0
  -45.6488   18.1744   67.8455 C   0  0  0  0  0  0  0  0  0  0  0  0
  -45.4911   16.8181   67.5383 C   0  0  0  0  0  0  0  0  0  0  0  0
  -46.5624   15.9529   67.6277 O   0  0  0  0  0  0  0  0  0  0  0  0
  -42.1024   19.4338   67.2594 C   0  0  2  0  0  0  0  0  0  0  0  0
  -41.2405   19.3194   66.0113 C   0  0  0  0  0  0  0  0  0  0  0  0
  -39.9035   19.9156   66.4638 C   0  0  0  0  0  0  0  0  0  0  0  0
  -40.0079   20.0575   67.9829 C   0  0  0  0  0  0  0  0  0  0  0  0
  -41.1642   19.2378   68.3637 N   0  0  0  0  0  0  0  0  0  0  0  0
  -41.7283   19.6276   69.6600 C   0  0  0  0  0  0  0  0  0  0  0  0
  -44.6537   20.0630   67.9845 H   0  0  0  0  0  0  0  0  0  0  0  0
  -42.2463   16.6823   66.7692 H   0  0  0  0  0  0  0  0  0  0  0  0
  -46.6081   18.5643   68.1611 H   0  0  0  0  0  0  0  0  0  0  0  0
  -47.4940   16.2451   67.3568 H   0  0  0  0  0  0  0  0  0  0  0  0
  -42.4811   20.4865   67.2769 H   0  0  0  0  0  0  0  0  0  0  0  0
  -41.6775   19.8947   65.1660 H   0  0  0  0  0  0  0  0  0  0  0  0
  -41.0846   18.2668   65.6977 H   0  0  0  0  0  0  0  0  0  0  0  0
  -39.7360   20.9090   65.9930 H   0  0  0  0  0  0  0  0  0  0  0  0
  -39.0660   19.2367   66.1907 H   0  0  0  0  0  0  0  0  0  0  0  0
  -40.1593   21.1288   68.2531 H   0  0  0  0  0  0  0  0  0  0  0  0
  -39.0894   19.6760   68.4788 H   0  0  0  0  0  0  0  0  0  0  0  0
  -42.7304   20.0839   69.5121 H   0  0  0  0  0  0  0  0  0  0  0  0
  -41.0834   20.3924   70.1416 H   0  0  0  0  0  0  0  0  0  0  0  0
  -41.8297   18.7530   70.3404 H   0  0  0  0  0  0  0  0  0  0  0  0
  3  2  2  0
  4  1  2  0
  4  3  1  0
  5  2  1  0
  6  1  1  0
  6  5  2  0
  7  6  1  0
  8  3  1  0
  9  8  1  0
 10  9  1  0
 11 10  1  0
 12 11  1  0
 12  8  1  0
 13 12  1  0
  2 14  1  0
  4 15  1  0
  5 16  1  0
  7 17  1  0
  8 18  1  1
  9 19  1  0
  9 20  1  0
 10 21  1  0
 10 22  1  0
 11 23  1  0
 11 24  1  0
 13 25  1  0
 13 26  1  0
 13 27  1  0
M  END
