
     RDKit          3D

 38 40  0  0  0  0  0  0  0  0999 V2000
  -14.9455  -44.6611 -104.9684 C   0  0  0  0  0  0  0  0  0  0  0  0
  -15.0501  -45.2829 -106.2245 O   0  0  0  0  0  0  0  0  0  0  0  0
  -13.5009  -44.7527 -104.4680 C   0  0  1  0  0  0  0  0  0  0  0  0
  -12.6366  -44.0532 -105.3343 O   0  0  0  0  0  0  0  0  0  0  0  0
  -13.2986  -44.1822 -103.0495 C   0  0  1  0  0  0  0  0  0  0  0  0
  -13.0736  -45.2334 -102.1430 O   0  0  0  0  0  0  0  0  0  0  0  0
  -12.0514  -43.2964 -103.1950 C   0  0  1  0  0  0  0  0  0  0  0  0
  -11.0888  -43.4911 -102.1859 O   0  0  0  0  0  0  0  0  0  0  0  0
  -11.5170  -43.7458 -104.5476 C   0  0  2  0  0  0  0  0  0  0  0  0
   -7.4431  -40.6892 -104.0315 N   0  0  0  0  0  0  0  0  0  0  0  0
   -8.0528  -41.4902 -103.1115 C   0  0  0  0  0  0  0  0  0  0  0  0
   -9.1398  -42.2344 -103.4569 N   0  0  0  0  0  0  0  0  0  0  0  0
   -9.6055  -42.1424 -104.7271 C   0  0  0  0  0  0  0  0  0  0  0  0
   -9.0065  -41.3772 -105.6766 C   0  0  0  0  0  0  0  0  0  0  0  0
   -7.8630  -40.6162 -105.3297 C   0  0  0  0  0  0  0  0  0  0  0  0
   -7.0897  -39.8307 -106.2551 N   0  0  0  0  0  0  0  0  0  0  0  0
   -9.6760  -41.5098 -106.8465 N   0  0  0  0  0  0  0  0  0  0  0  0
  -10.6795  -42.3870 -106.5469 C   0  0  0  0  0  0  0  0  0  0  0  0
   -7.7014  -39.2582 -107.4545 C   0  0  0  0  0  0  0  0  0  0  0  0
  -10.6811  -42.7591 -105.2392 N   0  0  0  0  0  0  0  0  0  0  0  0
   -5.6358  -39.7488 -106.0557 C   0  0  0  0  0  0  0  0  0  0  0  0
  -15.2444  -43.5918 -105.0501 H   0  0  0  0  0  0  0  0  0  0  0  0
  -15.6188  -45.1714 -104.2437 H   0  0  0  0  0  0  0  0  0  0  0  0
  -15.8491  -44.8873 -106.6604 H   0  0  0  0  0  0  0  0  0  0  0  0
  -13.2109  -45.8300 -104.4842 H   0  0  0  0  0  0  0  0  0  0  0  0
  -14.1605  -43.5571 -102.7167 H   0  0  0  0  0  0  0  0  0  0  0  0
  -13.9597  -45.6439 -101.9647 H   0  0  0  0  0  0  0  0  0  0  0  0
  -12.3554  -42.2255 -103.2402 H   0  0  0  0  0  0  0  0  0  0  0  0
  -10.7750  -44.4279 -102.2801 H   0  0  0  0  0  0  0  0  0  0  0  0
  -10.9208  -44.6790 -104.3976 H   0  0  0  0  0  0  0  0  0  0  0  0
   -7.6736  -41.5311 -102.0998 H   0  0  0  0  0  0  0  0  0  0  0  0
  -11.3939  -42.7432 -107.2772 H   0  0  0  0  0  0  0  0  0  0  0  0
   -6.9949  -39.3253 -108.3086 H   0  0  0  0  0  0  0  0  0  0  0  0
   -7.9593  -38.1878 -107.3123 H   0  0  0  0  0  0  0  0  0  0  0  0
   -8.6378  -39.8036 -107.6947 H   0  0  0  0  0  0  0  0  0  0  0  0
   -5.1877  -40.7634 -106.1156 H   0  0  0  0  0  0  0  0  0  0  0  0
   -5.4183  -39.3073 -105.0600 H   0  0  0  0  0  0  0  0  0  0  0  0
   -5.1514  -39.1101 -106.8237 H   0  0  0  0  0  0  0  0  0  0  0  0
  2  1  1  0
  3  1  1  0
  4  3  1  0
  5  3  1  0
  5  6  1  0
  7  5  1  0
  7  8  1  0
  9  4  1  0
  9  7  1  0
 11 10  2  0
 12 11  1  0
 13 12  2  0
 14 13  1  0
 15 14  2  0
 15 10  1  0
 16 15  1  0
 17 14  1  0
 18 17  2  0
 19 16  1  0
  9 20  1  0
 20 18  1  0
 20 13  1  0
 21 16  1  0
  1 22  1  0
  1 23  1  0
  2 24  1  0
  3 25  1  1
  5 26  1  1
  6 27  1  0
  7 28  1  6
  8 29  1  0
  9 30  1  1
 11 31  1  0
 18 32  1  0
 19 33  1  0
 19 34  1  0
 19 35  1  0
 21 36  1  0
 21 37  1  0
 21 38  1  0
M  END
