
     RDKit          3D

 12 11  0  0  0  0  0  0  0  0999 V2000
   85.6264   38.4139   -4.2706 N   0  0  0  0  0  0  0  0  0  0  0  0
   85.1416   37.6982   -3.1501 C   0  0  0  0  0  0  0  0  0  0  0  0
   85.1756   38.2339   -2.0077 O   0  0  0  0  0  0  0  0  0  0  0  0
   84.5298   35.3640   -1.9942 P   0  0  0  0  0  0  0  0  0  0  0  0
   85.2638   36.1144   -0.6898 O   0  0  0  0  0  0  0  0  0  0  0  0
   85.3621   33.9606   -2.3735 O   0  0  0  0  0  0  0  0  0  0  0  0
   83.0967   35.0410   -1.6623 O   0  0  0  0  0  0  0  0  0  0  0  0
   84.6345   36.4106   -3.3285 O   0  0  0  0  0  0  0  0  0  0  0  0
   86.0829   37.9064   -5.0604 H   0  0  0  0  0  0  0  0  0  0  0  0
   85.5323   39.4528   -4.3177 H   0  0  0  0  0  0  0  0  0  0  0  0
   85.9341   36.7232   -1.0913 H   0  0  0  0  0  0  0  0  0  0  0  0
   85.8900   33.7432   -1.5644 H   0  0  0  0  0  0  0  0  0  0  0  0
  2  1  1  0
  3  2  2  0
  5  4  1  0
  6  4  1  0
  7  4  2  0
  8  4  1  0
  8  2  1  0
  1  9  1  0
  1 10  1  0
  5 11  1  0
  6 12  1  0
M  END
