
     RDKit          3D

 12 11  0  0  0  0  0  0  0  0999 V2000
   52.6056   56.2994  -34.7916 N   0  0  0  0  0  0  0  0  0  0  0  0
   53.2459   55.0779  -34.4738 C   0  0  0  0  0  0  0  0  0  0  0  0
   53.5258   54.8174  -33.2708 O   0  0  0  0  0  0  0  0  0  0  0  0
   52.9538   52.5943  -35.4212 P   0  0  0  0  0  0  0  0  0  0  0  0
   53.9186   51.6269  -36.3889 O   0  0  0  0  0  0  0  0  0  0  0  0
   51.3920   52.6088  -36.0263 O   0  0  0  0  0  0  0  0  0  0  0  0
   52.9544   52.0730  -34.0084 O   0  0  0  0  0  0  0  0  0  0  0  0
   53.5570   54.1812  -35.4969 O   0  0  0  0  0  0  0  0  0  0  0  0
   53.0656   56.9816  -35.4341 H   0  0  0  0  0  0  0  0  0  0  0  0
   51.6703   56.5290  -34.3879 H   0  0  0  0  0  0  0  0  0  0  0  0
   53.2974   50.9660  -36.7868 H   0  0  0  0  0  0  0  0  0  0  0  0
   51.4010   53.2773  -36.7567 H   0  0  0  0  0  0  0  0  0  0  0  0
  2  1  1  0
  3  2  2  0
  5  4  1  0
  6  4  1  0
  7  4  2  0
  8  4  1  0
  8  2  1  0
  1  9  1  0
  1 10  1  0
  5 11  1  0
  6 12  1  0
M  END
