
     RDKit          3D

 72 74  0  0  0  0  0  0  0  0999 V2000
   60.1594    5.5240    1.5677 C   0  0  1  0  0  0  0  0  0  0  0  0
   60.6331    4.4846    2.3923 O   0  0  0  0  0  0  0  0  0  0  0  0
   60.4347    6.8808    2.1600 C   0  0  0  0  0  0  0  0  0  0  0  0
   58.5147    8.0193    1.3825 O   0  0  0  0  0  0  0  0  0  0  0  0
   59.9179    8.0696    1.3858 C   0  0  2  0  0  0  0  0  0  0  0  0
   65.6470    0.1390   -6.2886 O   0  0  0  0  0  0  0  0  0  0  0  0
   60.4476    8.0344   -0.0603 C   0  0  0  0  0  0  0  0  0  0  0  0
   60.3542    6.6514   -0.6914 C   0  0  0  0  0  0  0  0  0  0  0  0
   60.1052    6.5618   -2.0148 C   0  0  0  0  0  0  0  0  0  0  0  0
   60.1488    5.2990   -2.8055 C   0  0  0  0  0  0  0  0  0  0  0  0
   60.8474    5.1479   -3.9501 C   0  0  0  0  0  0  0  0  0  0  0  0
   61.6860    6.2441   -4.5888 C   0  0  0  0  0  0  0  0  0  0  0  0
   60.7695    5.4553    0.1567 C   0  0  0  0  0  0  0  0  0  0  0  0
   63.1414    5.7909   -4.7965 C   0  0  0  0  0  0  0  0  0  0  0  0
   63.2938    4.3626   -5.3693 C   0  0  0  0  0  0  0  0  0  0  0  0
   62.4371    3.3220   -4.5948 C   0  0  1  0  0  0  0  0  0  0  0  0
   60.9838    3.8173   -4.6756 C   0  0  1  0  0  0  0  0  0  0  0  0
   60.1206    2.5975   -4.3614 C   0  0  0  0  0  0  0  0  0  0  0  0
   60.8870    1.4402   -5.0260 C   0  0  0  0  0  0  0  0  0  0  0  0
   62.3176    1.9283   -5.1853 C   0  0  0  0  0  0  0  0  0  0  0  0
   62.9324    3.1573   -3.1312 C   0  0  0  0  0  0  0  0  0  0  0  0
   63.3283    1.1682   -5.7136 C   0  0  0  0  0  0  0  0  0  0  0  0
   64.7487    1.6681   -5.8496 C   0  0  0  0  0  0  0  0  0  0  0  0
   63.0662   -0.2292   -6.2289 C   0  0  0  0  0  0  0  0  0  0  0  0
   63.2672   -1.2799   -5.1352 C   0  0  0  0  0  0  0  0  0  0  0  0
   64.7495   -1.6613   -4.9635 C   0  0  0  0  0  0  0  0  0  0  0  0
   65.6252   -1.2690   -6.1703 C   0  0  0  0  0  0  0  0  0  0  0  0
   67.0595   -1.7430   -5.8936 C   0  0  0  0  0  0  0  0  0  0  0  0
   65.1357   -1.9325   -7.4776 C   0  0  0  0  0  0  0  0  0  0  0  0
   61.0913    7.0366    3.3213 C   0  0  0  0  0  0  0  0  0  0  0  0
   59.0577    5.4025    1.4784 H   0  0  0  0  0  0  0  0  0  0  0  0
   61.1026    3.8238    1.8181 H   0  0  0  0  0  0  0  0  0  0  0  0
   58.1942    8.9223    1.1217 H   0  0  0  0  0  0  0  0  0  0  0  0
   60.2549    9.0210    1.8619 H   0  0  0  0  0  0  0  0  0  0  0  0
   64.9185    0.4357   -6.8931 H   0  0  0  0  0  0  0  0  0  0  0  0
   61.5183    8.3332   -0.0539 H   0  0  0  0  0  0  0  0  0  0  0  0
   59.9002    8.7957   -0.6592 H   0  0  0  0  0  0  0  0  0  0  0  0
   59.8373    7.4780   -2.5145 H   0  0  0  0  0  0  0  0  0  0  0  0
   59.6069    4.4427   -2.4535 H   0  0  0  0  0  0  0  0  0  0  0  0
   61.7202    7.1949   -4.0322 H   0  0  0  0  0  0  0  0  0  0  0  0
   61.2441    6.4780   -5.5814 H   0  0  0  0  0  0  0  0  0  0  0  0
   61.8794    5.4522    0.2213 H   0  0  0  0  0  0  0  0  0  0  0  0
   60.4576    4.4827   -0.2597 H   0  0  0  0  0  0  0  0  0  0  0  0
   63.6771    5.8561   -3.8247 H   0  0  0  0  0  0  0  0  0  0  0  0
   63.6448    6.5064   -5.4824 H   0  0  0  0  0  0  0  0  0  0  0  0
   64.3718    4.1384   -5.2805 H   0  0  0  0  0  0  0  0  0  0  0  0
   63.0214    4.3621   -6.4479 H   0  0  0  0  0  0  0  0  0  0  0  0
   60.7476    4.0430   -5.7448 H   0  0  0  0  0  0  0  0  0  0  0  0
   60.0612    2.4133   -3.2681 H   0  0  0  0  0  0  0  0  0  0  0  0
   59.0950    2.7032   -4.7772 H   0  0  0  0  0  0  0  0  0  0  0  0
   60.4454    1.2369   -6.0252 H   0  0  0  0  0  0  0  0  0  0  0  0
   60.8392    0.5283   -4.3941 H   0  0  0  0  0  0  0  0  0  0  0  0
   62.4173    2.3171   -2.6187 H   0  0  0  0  0  0  0  0  0  0  0  0
   64.0204    2.9490   -3.1046 H   0  0  0  0  0  0  0  0  0  0  0  0
   62.7570    4.0687   -2.5252 H   0  0  0  0  0  0  0  0  0  0  0  0
   65.4130    1.1035   -5.1654 H   0  0  0  0  0  0  0  0  0  0  0  0
   65.0937    1.6154   -6.9001 H   0  0  0  0  0  0  0  0  0  0  0  0
   64.8457    2.7260   -5.5380 H   0  0  0  0  0  0  0  0  0  0  0  0
   63.7192   -0.4516   -7.1012 H   0  0  0  0  0  0  0  0  0  0  0  0
   62.0349   -0.3138   -6.6295 H   0  0  0  0  0  0  0  0  0  0  0  0
   62.8576   -0.9189   -4.1668 H   0  0  0  0  0  0  0  0  0  0  0  0
   62.6650   -2.1622   -5.4321 H   0  0  0  0  0  0  0  0  0  0  0  0
   65.1735   -1.1399   -4.0782 H   0  0  0  0  0  0  0  0  0  0  0  0
   64.8176   -2.7559   -4.7742 H   0  0  0  0  0  0  0  0  0  0  0  0
   67.0628   -2.7507   -5.4239 H   0  0  0  0  0  0  0  0  0  0  0  0
   67.5808   -1.0340   -5.2146 H   0  0  0  0  0  0  0  0  0  0  0  0
   67.6381   -1.7939   -6.8411 H   0  0  0  0  0  0  0  0  0  0  0  0
   65.9998   -2.1761   -8.1325 H   0  0  0  0  0  0  0  0  0  0  0  0
   64.5834   -2.8709   -7.2551 H   0  0  0  0  0  0  0  0  0  0  0  0
   64.4598   -1.2592   -8.0453 H   0  0  0  0  0  0  0  0  0  0  0  0
   61.4577    6.1979    3.9023 H   0  0  0  0  0  0  0  0  0  0  0  0
   61.2701    8.0282    3.7251 H   0  0  0  0  0  0  0  0  0  0  0  0
  1  2  1  0
  3  1  1  0
  5  4  1  0
  5  3  1  0
  7  5  1  0
  8  7  1  0
  9  8  2  3
 10  9  1  0
 11 10  2  3
 12 11  1  0
 13  8  1  0
 13  1  1  0
 14 12  1  0
 15 14  1  0
 16 15  1  0
 17 16  1  0
 17 11  1  0
 17 18  1  0
 19 18  1  0
 20 16  1  0
 20 19  1  0
 16 21  1  1
 22 20  2  3
 23 22  1  0
 24 22  1  0
 25 24  1  0
 26 25  1  0
 27 26  1  0
 27  6  1  0
 27 28  1  0
 29 27  1  0
 30  3  2  0
  1 31  1  6
  2 32  1  0
  4 33  1  0
  5 34  1  1
  6 35  1  0
  7 36  1  0
  7 37  1  0
  9 38  1  0
 10 39  1  0
 12 40  1  0
 12 41  1  0
 13 42  1  0
 13 43  1  0
 14 44  1  0
 14 45  1  0
 15 46  1  0
 15 47  1  0
 17 48  1  6
 18 49  1  0
 18 50  1  0
 19 51  1  0
 19 52  1  0
 21 53  1  0
 21 54  1  0
 21 55  1  0
 23 56  1  0
 23 57  1  0
 23 58  1  0
 24 59  1  0
 24 60  1  0
 25 61  1  0
 25 62  1  0
 26 63  1  0
 26 64  1  0
 28 65  1  0
 28 66  1  0
 28 67  1  0
 29 68  1  0
 29 69  1  0
 29 70  1  0
 30 71  1  0
 30 72  1  0
M  END
