
     RDKit          3D

 22 22  0  0  0  0  0  0  0  0999 V2000
   23.3158  -24.7296   -5.5100 O   0  0  0  0  0  0  0  0  0  0  0  0
   22.3266  -23.9318   -0.3539 C   0  0  0  0  0  0  0  0  0  0  0  0
   21.6364  -28.1794   -3.8303 C   0  0  0  0  0  0  0  0  0  0  0  0
   21.9386  -28.1382   -5.1941 C   0  0  0  0  0  0  0  0  0  0  0  0
   22.4833  -26.9853   -5.7602 C   0  0  0  0  0  0  0  0  0  0  0  0
   22.7325  -25.8663   -4.9581 C   0  0  0  0  0  0  0  0  0  0  0  0
   21.8882  -27.0708   -3.0234 C   0  0  0  0  0  0  0  0  0  0  0  0
   22.4191  -25.9008   -3.5860 C   0  0  0  0  0  0  0  0  0  0  0  0
   22.8182  -24.7706   -2.6856 C   0  0  0  0  0  0  0  0  0  0  0  0
   21.7900  -24.6885   -1.5539 C   0  0  0  0  0  0  0  0  0  0  0  0
   24.0405  -24.7933   -6.2154 H   0  0  0  0  0  0  0  0  0  0  0  0
   23.0827  -23.1843   -0.6757 H   0  0  0  0  0  0  0  0  0  0  0  0
   22.7921  -24.6364    0.3679 H   0  0  0  0  0  0  0  0  0  0  0  0
   21.4949  -23.3996    0.1544 H   0  0  0  0  0  0  0  0  0  0  0  0
   21.2216  -29.0801   -3.3964 H   0  0  0  0  0  0  0  0  0  0  0  0
   21.7500  -29.0053   -5.8139 H   0  0  0  0  0  0  0  0  0  0  0  0
   22.7214  -26.9672   -6.8162 H   0  0  0  0  0  0  0  0  0  0  0  0
   21.6801  -27.1297   -1.9621 H   0  0  0  0  0  0  0  0  0  0  0  0
   23.8343  -24.9462   -2.2700 H   0  0  0  0  0  0  0  0  0  0  0  0
   22.8449  -23.8123   -3.2501 H   0  0  0  0  0  0  0  0  0  0  0  0
   20.8749  -24.1667   -1.9128 H   0  0  0  0  0  0  0  0  0  0  0  0
   21.5000  -25.7108   -1.2265 H   0  0  0  0  0  0  0  0  0  0  0  0
  4  3  2  0
  5  4  1  0
  6  5  2  0
  6  1  1  0
  7  3  1  0
  8  7  2  0
  8  6  1  0
  9  8  1  0
 10  9  1  0
 10  2  1  0
  1 11  1  0
  2 12  1  0
  2 13  1  0
  2 14  1  0
  3 15  1  0
  4 16  1  0
  5 17  1  0
  7 18  1  0
  9 19  1  0
  9 20  1  0
 10 21  1  0
 10 22  1  0
M  END
