
     RDKit          3D

 49 52  0  0  0  0  0  0  0  0999 V2000
   70.6552  -20.5227    1.0064 C   0  0  0  0  0  0  0  0  0  0  0  0
   71.8085  -19.9071    1.8001 C   0  0  0  0  0  0  0  0  0  0  0  0
   72.0443  -18.4968    1.3684 C   0  0  0  0  0  0  0  0  0  0  0  0
   73.1929  -17.9894    1.4584 O   0  0  0  0  0  0  0  0  0  0  0  0
   70.9309  -17.6746    0.8942 C   0  0  0  0  0  0  0  0  0  0  0  0
   69.7054  -18.1793    0.6823 C   0  0  0  0  0  0  0  0  0  0  0  0
   68.6121  -17.2311    0.2573 C   0  0  0  0  0  0  0  0  0  0  0  0
   67.7908  -17.8274   -0.8761 C   0  0  0  0  0  0  0  0  0  0  0  0
   67.2545  -19.2113   -0.4879 C   0  0  2  0  0  0  0  0  0  0  0  0
   68.4278  -20.1867   -0.1547 C   0  0  1  0  0  0  0  0  0  0  0  0
   69.3609  -19.6460    0.9814 C   0  0  1  0  0  0  0  0  0  0  0  0
   67.9350  -21.6469    0.0997 C   0  0  0  0  0  0  0  0  0  0  0  0
   67.0057  -22.1667   -1.0142 C   0  0  0  0  0  0  0  0  0  0  0  0
   65.8548  -21.1768   -1.2763 C   0  0  1  0  0  0  0  0  0  0  0  0
   66.4553  -19.8217   -1.6471 C   0  0  1  0  0  0  0  0  0  0  0  0
   65.2833  -19.0352   -2.2096 C   0  0  0  0  0  0  0  0  0  0  0  0
   64.4343  -20.1037   -2.9201 C   0  0  0  0  0  0  0  0  0  0  0  0
   65.0264  -21.4769   -2.5336 C   0  0  2  0  0  0  0  0  0  0  0  0
   64.0176  -22.4265   -2.2917 O   0  0  0  0  0  0  0  0  0  0  0  0
   64.9057  -21.1025   -0.0396 C   0  0  0  0  0  0  0  0  0  0  0  0
   68.6670  -19.7174    2.3625 C   0  0  0  0  0  0  0  0  0  0  0  0
   70.4479  -21.5243    1.4398 H   0  0  0  0  0  0  0  0  0  0  0  0
   71.0224  -20.6871   -0.0314 H   0  0  0  0  0  0  0  0  0  0  0  0
   72.7286  -20.5102    1.6393 H   0  0  0  0  0  0  0  0  0  0  0  0
   71.5729  -19.9193    2.8852 H   0  0  0  0  0  0  0  0  0  0  0  0
   71.1308  -16.6270    0.6998 H   0  0  0  0  0  0  0  0  0  0  0  0
   67.9532  -17.0272    1.1288 H   0  0  0  0  0  0  0  0  0  0  0  0
   69.0189  -16.2544   -0.0869 H   0  0  0  0  0  0  0  0  0  0  0  0
   66.9474  -17.1372   -1.0943 H   0  0  0  0  0  0  0  0  0  0  0  0
   68.4220  -17.9000   -1.7899 H   0  0  0  0  0  0  0  0  0  0  0  0
   66.5956  -19.0621    0.3885 H   0  0  0  0  0  0  0  0  0  0  0  0
   69.0497  -20.2376   -1.0794 H   0  0  0  0  0  0  0  0  0  0  0  0
   68.8017  -22.3377    0.1411 H   0  0  0  0  0  0  0  0  0  0  0  0
   67.4114  -21.7325    1.0709 H   0  0  0  0  0  0  0  0  0  0  0  0
   66.5971  -23.1596   -0.7254 H   0  0  0  0  0  0  0  0  0  0  0  0
   67.6048  -22.3119   -1.9406 H   0  0  0  0  0  0  0  0  0  0  0  0
   67.1662  -19.9635   -2.4995 H   0  0  0  0  0  0  0  0  0  0  0  0
   64.7043  -18.5410   -1.3991 H   0  0  0  0  0  0  0  0  0  0  0  0
   65.6300  -18.2620   -2.9296 H   0  0  0  0  0  0  0  0  0  0  0  0
   64.4779  -19.9680   -4.0227 H   0  0  0  0  0  0  0  0  0  0  0  0
   63.3741  -20.0193   -2.5945 H   0  0  0  0  0  0  0  0  0  0  0  0
   65.6954  -21.8352   -3.3524 H   0  0  0  0  0  0  0  0  0  0  0  0
   63.1750  -22.0354   -2.6415 H   0  0  0  0  0  0  0  0  0  0  0  0
   64.9520  -21.9921    0.6144 H   0  0  0  0  0  0  0  0  0  0  0  0
   63.8505  -21.0357   -0.3802 H   0  0  0  0  0  0  0  0  0  0  0  0
   65.0999  -20.2136    0.5944 H   0  0  0  0  0  0  0  0  0  0  0  0
   68.6051  -20.7720    2.7062 H   0  0  0  0  0  0  0  0  0  0  0  0
   69.2243  -19.1556    3.1377 H   0  0  0  0  0  0  0  0  0  0  0  0
   67.6275  -19.3315    2.3234 H   0  0  0  0  0  0  0  0  0  0  0  0
  2  1  1  0
  3  2  1  0
  4  3  2  0
  5  3  1  0
  6  5  2  0
  7  6  1  0
  8  7  1  0
  9  8  1  0
 10  9  1  0
 11 10  1  0
 11  6  1  0
 11  1  1  0
 10 12  1  0
 13 12  1  0
 14 13  1  0
 15 14  1  0
 15  9  1  0
 15 16  1  0
 17 16  1  0
 18 17  1  0
 18 14  1  0
 18 19  1  0
 14 20  1  1
 11 21  1  1
  1 22  1  0
  1 23  1  0
  2 24  1  0
  2 25  1  0
  5 26  1  0
  7 27  1  0
  7 28  1  0
  8 29  1  0
  8 30  1  0
  9 31  1  1
 10 32  1  6
 12 33  1  0
 12 34  1  0
 13 35  1  0
 13 36  1  0
 15 37  1  6
 16 38  1  0
 16 39  1  0
 17 40  1  0
 17 41  1  0
 18 42  1  6
 19 43  1  0
 20 44  1  0
 20 45  1  0
 20 46  1  0
 21 47  1  0
 21 48  1  0
 21 49  1  0
M  END
