
     RDKit          3D

 33 34  0  0  0  0  0  0  0  0999 V2000
   25.1278   -2.0302    7.7535 P   0  0  0  0  0  0  0  0  0  0  0  0
   24.0792   -2.8948    7.0918 O   0  0  0  0  0  0  0  0  0  0  0  0
   26.1718   -2.9665    8.6881 O   0  0  0  0  0  0  0  0  0  0  0  0
   26.0409   -1.2463    6.5820 O   0  0  0  0  0  0  0  0  0  0  0  0
   23.4249   -0.1517    8.1422 C   0  0  0  0  0  0  0  0  0  0  0  0
   24.4347   -0.8826    8.7884 O   0  0  0  0  0  0  0  0  0  0  0  0
   22.6029    0.5684    9.2299 C   0  0  1  0  0  0  0  0  0  0  0  0
   21.4243    1.1127    8.6708 O   0  0  0  0  0  0  0  0  0  0  0  0
   22.2117   -0.3588   10.3916 C   0  0  1  0  0  0  0  0  0  0  0  0
   22.2196    0.3679   11.5968 O   0  0  0  0  0  0  0  0  0  0  0  0
   20.7979   -0.7440   10.0288 C   0  0  1  0  0  0  0  0  0  0  0  0
   20.0131   -1.0552   11.1507 O   0  0  0  0  0  0  0  0  0  0  0  0
   20.3202    0.5323    9.3334 C   0  0  2  0  0  0  0  0  0  0  0  0
   19.2374    0.3040    8.3654 N   0  0  0  0  0  0  0  0  0  0  0  0
   19.2702   -0.7490    7.4880 C   0  0  0  0  0  0  0  0  0  0  0  0
   20.1927   -1.5997    7.5338 O   0  0  0  0  0  0  0  0  0  0  0  0
   18.3029   -0.8803    6.5490 N   0  0  0  0  0  0  0  0  0  0  0  0
   17.3129    0.0381    6.4537 C   0  0  0  0  0  0  0  0  0  0  0  0
   16.4212   -0.0858    5.5769 O   0  0  0  0  0  0  0  0  0  0  0  0
   17.2911    1.1206    7.3313 C   0  0  0  0  0  0  0  0  0  0  0  0
   18.2680    1.2218    8.2643 N   0  0  0  0  0  0  0  0  0  0  0  0
   26.4963   -3.6722    8.0736 H   0  0  0  0  0  0  0  0  0  0  0  0
   26.0763   -1.8806    5.8221 H   0  0  0  0  0  0  0  0  0  0  0  0
   22.7748   -0.8426    7.5695 H   0  0  0  0  0  0  0  0  0  0  0  0
   23.8606    0.6119    7.4588 H   0  0  0  0  0  0  0  0  0  0  0  0
   23.2242    1.4083    9.6141 H   0  0  0  0  0  0  0  0  0  0  0  0
   22.8526   -1.2671   10.4797 H   0  0  0  0  0  0  0  0  0  0  0  0
   21.3346    0.8129   11.6622 H   0  0  0  0  0  0  0  0  0  0  0  0
   20.8223   -1.6174    9.3432 H   0  0  0  0  0  0  0  0  0  0  0  0
   19.1406   -0.5999   11.0195 H   0  0  0  0  0  0  0  0  0  0  0  0
   19.9745    1.2538   10.1105 H   0  0  0  0  0  0  0  0  0  0  0  0
   18.3262   -1.6893    5.8863 H   0  0  0  0  0  0  0  0  0  0  0  0
   16.5148    1.8727    7.2733 H   0  0  0  0  0  0  0  0  0  0  0  0
  2  1  2  0
  3  1  1  0
  4  1  1  0
  6  5  1  0
  6  1  1  0
  7  5  1  0
  8  7  1  0
  9  7  1  0
  9 10  1  0
 11  9  1  0
 11 12  1  0
 13 11  1  0
 13  8  1  0
 13 14  1  0
 15 14  1  0
 16 15  2  0
 17 15  1  0
 18 17  1  0
 19 18  2  0
 20 18  1  0
 21 20  2  0
 21 14  1  0
  3 22  1  0
  4 23  1  0
  5 24  1  0
  5 25  1  0
  7 26  1  1
  9 27  1  1
 10 28  1  0
 11 29  1  6
 12 30  1  0
 13 31  1  1
 17 32  1  0
 20 33  1  0
M  END
