
     RDKit          3D

 14 13  0  0  0  0  0  0  0  0999 V2000
   29.3143   12.6119  -13.1060 P   0  0  0  0  0  0  0  0  0  0  0  0
   29.7026   13.2347  -14.6235 O   0  0  0  0  0  0  0  0  0  0  0  0
   27.8970   12.9736  -12.7277 O   0  0  0  0  0  0  0  0  0  0  0  0
   30.3916   13.3254  -12.0408 O   0  0  0  0  0  0  0  0  0  0  0  0
   29.5317   10.9463  -13.0772 O   0  0  0  0  0  0  0  0  0  0  0  0
   28.0212   12.3034  -15.9373 C   0  0  0  0  0  0  0  0  0  0  0  0
   26.9303   11.7997  -15.5517 O   0  0  0  0  0  0  0  0  0  0  0  0
   28.5422   13.5617  -15.3351 C   0  0  0  0  0  0  0  0  0  0  0  0
   28.7351   11.7003  -16.9528 O   0  0  0  0  0  0  0  0  0  0  0  0
   31.2431   12.8376  -12.1749 H   0  0  0  0  0  0  0  0  0  0  0  0
   28.9278   10.5991  -13.7814 H   0  0  0  0  0  0  0  0  0  0  0  0
   28.7744   14.2853  -16.1474 H   0  0  0  0  0  0  0  0  0  0  0  0
   27.7514   13.9699  -14.6676 H   0  0  0  0  0  0  0  0  0  0  0  0
   28.5138   11.8834  -17.9244 H   0  0  0  0  0  0  0  0  0  0  0  0
  2  1  1  0
  3  1  2  0
  4  1  1  0
  5  1  1  0
  7  6  2  0
  8  6  1  0
  8  2  1  0
  9  6  1  0
  4 10  1  0
  5 11  1  0
  8 12  1  0
  8 13  1  0
  9 14  1  0
M  END
