
     RDKit          3D

 15 15  0  0  0  0  0  0  0  0999 V2000
    3.7696   17.7504   34.2738 N   0  0  0  0  0  0  0  0  0  0  0  0
    2.8536   18.5882   33.7281 C   0  0  0  0  0  0  0  0  0  0  0  0
    2.1344   18.1974   32.6504 N   0  0  0  0  0  0  0  0  0  0  0  0
    2.3310   16.9695   32.1133 C   0  0  0  0  0  0  0  0  0  0  0  0
    3.2500   16.1301   32.6547 N   0  0  0  0  0  0  0  0  0  0  0  0
    3.9673   16.5203   33.7390 C   0  0  0  0  0  0  0  0  0  0  0  0
    2.6440   19.8758   34.2867 N   0  0  0  0  0  0  0  0  0  0  0  0
    4.9210   15.6411   34.3205 N   0  0  0  0  0  0  0  0  0  0  0  0
    1.5712   16.5649   30.9839 N   0  0  0  0  0  0  0  0  0  0  0  0
    1.9721   20.5412   33.8439 H   0  0  0  0  0  0  0  0  0  0  0  0
    3.1593   20.1705   35.1457 H   0  0  0  0  0  0  0  0  0  0  0  0
    4.6204   14.7237   34.7183 H   0  0  0  0  0  0  0  0  0  0  0  0
    5.9309   15.9040   34.3554 H   0  0  0  0  0  0  0  0  0  0  0  0
    0.8382   17.1934   30.5861 H   0  0  0  0  0  0  0  0  0  0  0  0
    1.7383   15.6347   30.5401 H   0  0  0  0  0  0  0  0  0  0  0  0
  2  1  2  0
  3  2  1  0
  4  3  2  0
  5  4  1  0
  6  5  2  0
  6  1  1  0
  7  2  1  0
  8  6  1  0
  9  4  1  0
  7 10  1  0
  7 11  1  0
  8 12  1  0
  8 13  1  0
  9 14  1  0
  9 15  1  0
M  END
