
     RDKit          3D

 57 59  0  0  0  0  0  0  0  0999 V2000
   62.3645   13.3691  151.2460 P   0  0  2  0  0  0  0  0  0  0  0  0
   59.7749   12.9763  150.0522 P   0  0  1  0  0  0  0  0  0  0  0  0
   55.7113   11.2488  151.2871 P   0  0  2  0  0  0  0  0  0  0  0  0
   54.3067   11.4279  148.8389 P   0  0  0  0  0  0  0  0  0  0  0  0
   58.5289   10.6749  151.1416 P   0  0  1  0  0  0  0  0  0  0  0  0
   63.8229   13.5952  149.1454 C   0  0  0  0  0  0  0  0  0  0  0  0
   62.8702   14.2851  149.9197 O   0  0  0  0  0  0  0  0  0  0  0  0
   64.7213   14.6307  148.4640 C   0  0  1  0  0  0  0  0  0  0  0  0
   65.5657   15.2820  149.3963 O   0  0  0  0  0  0  0  0  0  0  0  0
   65.5812   14.0060  147.3859 C   0  0  1  0  0  0  0  0  0  0  0  0
   64.8764   13.9639  146.1702 O   0  0  0  0  0  0  0  0  0  0  0  0
   66.7736   14.9370  147.3591 C   0  0  1  0  0  0  0  0  0  0  0  0
   66.5135   16.0257  146.5050 O   0  0  0  0  0  0  0  0  0  0  0  0
   66.8481   15.4244  148.8134 C   0  0  2  0  0  0  0  0  0  0  0  0
   71.3233   15.6000  151.4157 N   0  0  0  0  0  0  0  0  0  0  0  0
   62.1775   14.2617  152.4351 O   0  0  0  0  0  0  0  0  0  0  0  0
   59.4850   14.4471  149.9772 O   0  0  0  0  0  0  0  0  0  0  0  0
   55.6239   10.5841  152.6373 O   0  0  0  0  0  0  0  0  0  0  0  0
   53.3147   10.6061  148.0476 O   0  0  0  0  0  0  0  0  0  0  0  0
   59.5578    9.8927  150.3512 O   0  0  0  0  0  0  0  0  0  0  0  0
   70.7219   16.5881  150.6823 C   0  0  0  0  0  0  0  0  0  0  0  0
   63.4250   12.1342  151.6637 O   0  0  0  0  0  0  0  0  0  0  0  0
   59.9188   12.3230  148.5074 O   0  0  0  0  0  0  0  0  0  0  0  0
   55.6363   12.9259  151.3970 O   0  0  0  0  0  0  0  0  0  0  0  0
   55.7378   11.5510  147.9464 O   0  0  0  0  0  0  0  0  0  0  0  0
   58.5968   10.2924  152.7823 O   0  0  0  0  0  0  0  0  0  0  0  0
   69.5342   16.3535  150.0478 N   0  0  0  0  0  0  0  0  0  0  0  0
   60.9695   12.5114  151.0958 O   0  0  0  0  0  0  0  0  0  0  0  0
   58.5578   12.3603  151.0069 O   0  0  0  0  0  0  0  0  0  0  0  0
   54.4545   10.6332  150.3360 O   0  0  0  0  0  0  0  0  0  0  0  0
   53.6514   12.9596  149.0952 O   0  0  0  0  0  0  0  0  0  0  0  0
   57.0207   10.7319  150.4255 O   0  0  0  0  0  0  0  0  0  0  0  0
   68.9762   15.1205  150.1657 C   0  0  0  0  0  0  0  0  0  0  0  0
   69.5469   14.1295  150.8923 C   0  0  0  0  0  0  0  0  0  0  0  0
   70.7620   14.3625  151.5417 C   0  0  0  0  0  0  0  0  0  0  0  0
   71.4269   13.3633  152.3035 N   0  0  0  0  0  0  0  0  0  0  0  0
   68.7823   13.0200  150.8455 N   0  0  0  0  0  0  0  0  0  0  0  0
   67.7378   13.3933  150.0588 C   0  0  0  0  0  0  0  0  0  0  0  0
   67.8315   14.6765  149.6171 N   0  0  0  0  0  0  0  0  0  0  0  0
   63.2758   13.0172  148.3693 H   0  0  0  0  0  0  0  0  0  0  0  0
   64.4744   12.8800  149.6852 H   0  0  0  0  0  0  0  0  0  0  0  0
   64.0696   15.4067  147.9992 H   0  0  0  0  0  0  0  0  0  0  0  0
   65.9089   12.9810  147.6786 H   0  0  0  0  0  0  0  0  0  0  0  0
   65.4464   13.4560  145.5360 H   0  0  0  0  0  0  0  0  0  0  0  0
   67.6958   14.3958  147.0428 H   0  0  0  0  0  0  0  0  0  0  0  0
   66.2460   16.7829  147.0886 H   0  0  0  0  0  0  0  0  0  0  0  0
   67.1176   16.5037  148.8310 H   0  0  0  0  0  0  0  0  0  0  0  0
   71.1902   17.5595  150.6037 H   0  0  0  0  0  0  0  0  0  0  0  0
   63.6385   11.6801  150.8092 H   0  0  0  0  0  0  0  0  0  0  0  0
   58.9991   12.3419  148.1405 H   0  0  0  0  0  0  0  0  0  0  0  0
   54.7733   13.1105  151.8465 H   0  0  0  0  0  0  0  0  0  0  0  0
   56.0365   10.6156  147.8164 H   0  0  0  0  0  0  0  0  0  0  0  0
   57.6567   10.3411  153.0899 H   0  0  0  0  0  0  0  0  0  0  0  0
   52.8669   12.8054  149.6799 H   0  0  0  0  0  0  0  0  0  0  0  0
   72.3181   12.9432  151.9578 H   0  0  0  0  0  0  0  0  0  0  0  0
   71.0361   13.0371  153.2153 H   0  0  0  0  0  0  0  0  0  0  0  0
   66.9136   12.7340  149.8281 H   0  0  0  0  0  0  0  0  0  0  0  0
  7  6  1  0
  1  7  1  6
  8  6  1  0
  9  8  1  0
 10  8  1  0
 10 11  1  0
 12 10  1  0
 12 13  1  0
 14 12  1  0
 14  9  1  0
 16  1  2  0
 17  2  2  0
 18  3  2  0
 19  4  2  0
 20  5  2  0
 21 15  2  0
 22  1  1  0
  2 23  1  6
  3 24  1  1
 25  4  1  0
  5 26  1  1
 27 21  1  0
 28  2  1  0
 28  1  1  0
 29  5  1  0
 29  2  1  0
 30  4  1  0
 30  3  1  0
 31  4  1  0
 32  3  1  0
 32  5  1  0
 33 27  2  0
 34 33  1  0
 35 34  2  0
 35 15  1  0
 36 35  1  0
 37 34  1  0
 38 37  2  0
 39 38  1  0
 39 33  1  0
 14 39  1  0
  6 40  1  0
  6 41  1  0
  8 42  1  6
 10 43  1  1
 11 44  1  0
 12 45  1  6
 13 46  1  0
 14 47  1  6
 21 48  1  0
 22 49  1  0
 23 50  1  0
 24 51  1  0
 25 52  1  0
 26 53  1  0
 31 54  1  0
 36 55  1  0
 36 56  1  0
 38 57  1  0
M  END
