
     RDKit          3D

 22 21  0  0  0  0  0  0  0  0999 V2000
    2.0526   22.9456   -1.0721 N   0  0  0  0  0  0  0  0  0  0  0  0
    2.5283   22.7152    0.2913 C   0  0  2  0  0  0  0  0  0  0  0  0
    3.4911   21.5555    0.3182 C   0  0  0  0  0  0  0  0  0  0  0  0
    4.3373   21.4196   -0.6052 O   0  0  0  0  0  0  0  0  0  0  0  0
    1.3401   22.4283    1.2318 C   0  0  0  0  0  0  0  0  0  0  0  0
    0.0930   23.2586    0.8888 C   0  0  0  0  0  0  0  0  0  0  0  0
   -1.0373   22.9862    1.8879 C   0  0  0  0  0  0  0  0  0  0  0  0
   -0.6233   23.3693    3.3053 C   0  0  0  0  0  0  0  0  0  0  0  0
    3.4528   20.6341    1.3528 O   0  0  0  0  0  0  0  0  0  0  0  0
    2.8823   23.1060   -1.6896 H   0  0  0  0  0  0  0  0  0  0  0  0
    1.5266   23.8477   -1.0973 H   0  0  0  0  0  0  0  0  0  0  0  0
    3.0747   23.6176    0.6495 H   0  0  0  0  0  0  0  0  0  0  0  0
    1.0909   21.3445    1.1929 H   0  0  0  0  0  0  0  0  0  0  0  0
    1.6335   22.6702    2.2779 H   0  0  0  0  0  0  0  0  0  0  0  0
    0.3520   24.3401    0.9107 H   0  0  0  0  0  0  0  0  0  0  0  0
   -0.2669   22.9995   -0.1292 H   0  0  0  0  0  0  0  0  0  0  0  0
   -1.9380   23.5736    1.6049 H   0  0  0  0  0  0  0  0  0  0  0  0
   -1.3015   21.9063    1.8714 H   0  0  0  0  0  0  0  0  0  0  0  0
   -1.2712   22.8576    4.0486 H   0  0  0  0  0  0  0  0  0  0  0  0
   -0.7002   24.4686    3.4462 H   0  0  0  0  0  0  0  0  0  0  0  0
    0.4292   23.0619    3.4809 H   0  0  0  0  0  0  0  0  0  0  0  0
    3.7757   20.8802    2.2810 H   0  0  0  0  0  0  0  0  0  0  0  0
  2  1  1  0
  3  2  1  0
  4  3  2  0
  5  2  1  0
  6  5  1  0
  7  6  1  0
  8  7  1  0
  9  3  1  0
  1 10  1  0
  1 11  1  0
  2 12  1  1
  5 13  1  0
  5 14  1  0
  6 15  1  0
  6 16  1  0
  7 17  1  0
  7 18  1  0
  8 19  1  0
  8 20  1  0
  8 21  1  0
  9 22  1  0
M  END
