
     RDKit          3D

 19 19  0  0  0  0  0  0  0  0999 V2000
    9.0392   19.0017   60.7838 N   0  0  0  0  0  0  0  0  0  0  0  0
    8.6771   20.2574   61.3427 C   0  0  0  0  0  0  0  0  0  0  0  0
    9.5441   21.1320   61.5854 O   0  0  0  0  0  0  0  0  0  0  0  0
    7.3164   20.5074   61.6389 N   0  0  0  0  0  0  0  0  0  0  0  0
    6.2994   19.7001   60.9779 C   0  0  0  0  0  0  0  0  0  0  0  0
    6.7335   18.2605   60.8333 C   0  0  0  0  0  0  0  0  0  0  0  0
    8.0471   17.9679   60.6659 C   0  0  0  0  0  0  0  0  0  0  0  0
    4.9432   19.9409   61.5675 C   0  0  0  0  0  0  0  0  0  0  0  0
    4.0054   19.1301   61.3325 O   0  0  0  0  0  0  0  0  0  0  0  0
    4.7733   20.9226   62.5256 O   0  0  0  0  0  0  0  0  0  0  0  0
    8.4994   16.6014   60.8914 C   0  0  0  0  0  0  0  0  0  0  0  0
    7.6452   15.6772   60.8773 O   0  0  0  0  0  0  0  0  0  0  0  0
    9.8408   16.3139   61.0617 O   0  0  0  0  0  0  0  0  0  0  0  0
   10.0458   18.7909   60.5972 H   0  0  0  0  0  0  0  0  0  0  0  0
    7.0753   21.4232   62.0814 H   0  0  0  0  0  0  0  0  0  0  0  0
    6.2263   20.0815   59.9360 H   0  0  0  0  0  0  0  0  0  0  0  0
    6.0009   17.4647   60.9044 H   0  0  0  0  0  0  0  0  0  0  0  0
    5.3505   20.9430   63.3579 H   0  0  0  0  0  0  0  0  0  0  0  0
   10.5454   16.7658   60.4911 H   0  0  0  0  0  0  0  0  0  0  0  0
  2  1  1  0
  3  2  2  0
  4  2  1  0
  5  4  1  0
  6  5  1  0
  7  6  2  0
  7  1  1  0
  8  5  1  0
  9  8  2  0
 10  8  1  0
 11  7  1  0
 12 11  2  0
 13 11  1  0
  1 14  1  0
  4 15  1  0
  5 16  1  0
  6 17  1  0
 10 18  1  0
 13 19  1  0
M  END
