
     RDKit          3D

 19 19  0  0  0  0  0  0  0  0999 V2000
   26.3142   39.8789   72.7700 N   0  0  0  0  0  0  0  0  0  0  0  0
   25.1063   40.0372   72.0480 C   0  0  0  0  0  0  0  0  0  0  0  0
   24.3766   39.0425   71.8165 O   0  0  0  0  0  0  0  0  0  0  0  0
   24.7471   41.3312   71.5766 N   0  0  0  0  0  0  0  0  0  0  0  0
   25.3930   42.4988   72.1758 C   0  0  0  0  0  0  0  0  0  0  0  0
   26.8356   42.2292   72.5125 C   0  0  0  0  0  0  0  0  0  0  0  0
   27.2223   40.9797   72.8687 C   0  0  0  0  0  0  0  0  0  0  0  0
   25.1181   43.7556   71.4082 C   0  0  0  0  0  0  0  0  0  0  0  0
   26.0815   44.3959   70.9092 O   0  0  0  0  0  0  0  0  0  0  0  0
   23.8183   44.0943   71.0668 O   0  0  0  0  0  0  0  0  0  0  0  0
   28.6367   40.6559   72.9190 C   0  0  0  0  0  0  0  0  0  0  0  0
   29.2325   40.6517   74.0296 O   0  0  0  0  0  0  0  0  0  0  0  0
   29.3016   40.3102   71.7631 O   0  0  0  0  0  0  0  0  0  0  0  0
   26.5936   38.9293   73.1064 H   0  0  0  0  0  0  0  0  0  0  0  0
   23.8576   41.4265   71.0361 H   0  0  0  0  0  0  0  0  0  0  0  0
   24.8973   42.6565   73.1585 H   0  0  0  0  0  0  0  0  0  0  0  0
   27.5626   43.0314   72.4569 H   0  0  0  0  0  0  0  0  0  0  0  0
   23.5889   45.0318   70.7590 H   0  0  0  0  0  0  0  0  0  0  0  0
   29.7456   41.0162   71.1882 H   0  0  0  0  0  0  0  0  0  0  0  0
  2  1  1  0
  3  2  2  0
  4  2  1  0
  5  4  1  0
  6  5  1  0
  7  6  2  0
  7  1  1  0
  8  5  1  0
  9  8  2  0
 10  8  1  0
 11  7  1  0
 12 11  2  0
 13 11  1  0
  1 14  1  0
  4 15  1  0
  5 16  1  0
  6 17  1  0
 10 18  1  0
 13 19  1  0
M  END
