
     RDKit          3D

 52 51  0  0  0  0  0  0  0  0999 V2000
  110.2715   22.1081   30.9707 P   0  0  1  0  0  0  0  0  0  0  0  0
  110.9170   23.9255   28.9105 P   0  0  0  0  0  0  0  0  0  0  0  0
  109.4062   23.8926   32.5919 C   0  0  0  0  0  0  0  0  0  0  0  0
  109.1832   22.5606   32.1929 O   0  0  0  0  0  0  0  0  0  0  0  0
  111.7140   22.3271   31.3757 O   0  0  0  0  0  0  0  0  0  0  0  0
  112.2528   23.2598   28.6749 O   0  0  0  0  0  0  0  0  0  0  0  0
  108.0746   24.5705   32.8093 C   0  0  0  0  0  0  0  0  0  0  0  0
  110.0069   20.4761   30.6894 O   0  0  0  0  0  0  0  0  0  0  0  0
  111.0905   25.3001   29.8565 O   0  0  0  0  0  0  0  0  0  0  0  0
  107.5407   24.8436   34.0277 C   0  0  0  0  0  0  0  0  0  0  0  0
  109.7706   22.8776   29.5553 O   0  0  0  0  0  0  0  0  0  0  0  0
  110.2342   24.3691   27.4429 O   0  0  0  0  0  0  0  0  0  0  0  0
  108.2759   24.4805   35.2921 C   0  0  0  0  0  0  0  0  0  0  0  0
  106.2209   25.5805   34.2199 C   0  0  0  0  0  0  0  0  0  0  0  0
  105.3780   25.8055   32.9581 C   0  0  0  0  0  0  0  0  0  0  0  0
  104.0938   26.5500   33.2678 C   0  0  0  0  0  0  0  0  0  0  0  0
  103.0751   26.6603   32.3804 C   0  0  0  0  0  0  0  0  0  0  0  0
  101.8478   27.4869   32.7123 C   0  0  0  0  0  0  0  0  0  0  0  0
  103.1464   26.0071   31.0227 C   0  0  0  0  0  0  0  0  0  0  0  0
  101.1247   27.0009   33.9771 C   0  0  0  0  0  0  0  0  0  0  0  0
   99.8490   27.7885   34.1992 C   0  0  0  0  0  0  0  0  0  0  0  0
   98.6213   27.3600   33.8248 C   0  0  0  0  0  0  0  0  0  0  0  0
   98.4102   26.0286   33.1505 C   0  0  0  0  0  0  0  0  0  0  0  0
   97.4251   28.2360   34.0929 C   0  0  0  0  0  0  0  0  0  0  0  0
  109.9362   24.5074   31.8435 H   0  0  0  0  0  0  0  0  0  0  0  0
  110.0442   23.8925   33.4978 H   0  0  0  0  0  0  0  0  0  0  0  0
  107.5326   24.8164   31.9042 H   0  0  0  0  0  0  0  0  0  0  0  0
  110.5974   20.2519   29.9264 H   0  0  0  0  0  0  0  0  0  0  0  0
  110.3027   25.8599   29.6393 H   0  0  0  0  0  0  0  0  0  0  0  0
  110.8666   25.0271   27.0578 H   0  0  0  0  0  0  0  0  0  0  0  0
  107.6815   24.7384   36.1945 H   0  0  0  0  0  0  0  0  0  0  0  0
  108.4743   23.3880   35.3171 H   0  0  0  0  0  0  0  0  0  0  0  0
  109.2330   25.0403   35.3507 H   0  0  0  0  0  0  0  0  0  0  0  0
  105.6043   25.0074   34.9471 H   0  0  0  0  0  0  0  0  0  0  0  0
  106.4476   26.5687   34.6765 H   0  0  0  0  0  0  0  0  0  0  0  0
  105.9501   26.4089   32.2212 H   0  0  0  0  0  0  0  0  0  0  0  0
  105.1389   24.8121   32.5213 H   0  0  0  0  0  0  0  0  0  0  0  0
  103.9906   27.0234   34.2414 H   0  0  0  0  0  0  0  0  0  0  0  0
  102.1443   28.5517   32.8399 H   0  0  0  0  0  0  0  0  0  0  0  0
  101.1370   27.4606   31.8574 H   0  0  0  0  0  0  0  0  0  0  0  0
  102.2311   26.2434   30.4408 H   0  0  0  0  0  0  0  0  0  0  0  0
  103.2413   24.9064   31.1341 H   0  0  0  0  0  0  0  0  0  0  0  0
  104.0168   26.3705   30.4374 H   0  0  0  0  0  0  0  0  0  0  0  0
  100.8734   25.9238   33.8673 H   0  0  0  0  0  0  0  0  0  0  0  0
  101.7977   27.1281   34.8524 H   0  0  0  0  0  0  0  0  0  0  0  0
   99.9243   28.7560   34.6918 H   0  0  0  0  0  0  0  0  0  0  0  0
   98.2015   25.2214   33.8830 H   0  0  0  0  0  0  0  0  0  0  0  0
   99.3201   25.7475   32.5800 H   0  0  0  0  0  0  0  0  0  0  0  0
   97.5473   26.0920   32.4548 H   0  0  0  0  0  0  0  0  0  0  0  0
   97.3348   28.4218   35.1841 H   0  0  0  0  0  0  0  0  0  0  0  0
   96.4808   27.7706   33.7414 H   0  0  0  0  0  0  0  0  0  0  0  0
   97.5487   29.2078   33.5696 H   0  0  0  0  0  0  0  0  0  0  0  0
  4  3  1  0
  1  4  1  1
  5  1  2  0
  6  2  2  0
  7  3  1  0
  8  1  1  0
  9  2  1  0
 10  7  2  3
 11  2  1  0
 11  1  1  0
 12  2  1  0
 13 10  1  0
 14 10  1  0
 15 14  1  0
 16 15  1  0
 17 16  2  3
 18 17  1  0
 19 17  1  0
 20 18  1  0
 21 20  1  0
 22 21  2  3
 23 22  1  0
 24 22  1  0
  3 25  1  0
  3 26  1  0
  7 27  1  0
  8 28  1  0
  9 29  1  0
 12 30  1  0
 13 31  1  0
 13 32  1  0
 13 33  1  0
 14 34  1  0
 14 35  1  0
 15 36  1  0
 15 37  1  0
 16 38  1  0
 18 39  1  0
 18 40  1  0
 19 41  1  0
 19 42  1  0
 19 43  1  0
 20 44  1  0
 20 45  1  0
 21 46  1  0
 23 47  1  0
 23 48  1  0
 23 49  1  0
 24 50  1  0
 24 51  1  0
 24 52  1  0
M  END
