
     RDKit          3D

 24 24  0  0  0  0  0  0  0  0999 V2000
   15.2179   37.2828   43.1795 C   0  0  0  0  0  0  0  0  0  0  0  0
   14.1425   37.9255   44.0738 C   0  0  2  0  0  0  0  0  0  0  0  0
   13.4324   36.9395   44.7741 O   0  0  0  0  0  0  0  0  0  0  0  0
   13.1875   38.7355   43.1773 C   0  0  1  0  0  0  0  0  0  0  0  0
   12.1307   39.2943   43.9192 O   0  0  0  0  0  0  0  0  0  0  0  0
   13.9900   39.8372   42.4523 C   0  0  2  0  0  0  0  0  0  0  0  0
   13.1448   40.5840   41.6048 O   0  0  0  0  0  0  0  0  0  0  0  0
   15.1918   39.2214   41.6656 C   0  0  2  0  0  0  0  0  0  0  0  0
   16.0116   38.3153   42.5009 N   0  0  0  0  0  0  0  0  0  0  0  0
   16.1050   40.3261   41.1015 C   0  0  0  0  0  0  0  0  0  0  0  0
   15.8565   41.5458   41.7655 O   0  0  0  0  0  0  0  0  0  0  0  0
   15.8949   36.6614   43.8052 H   0  0  0  0  0  0  0  0  0  0  0  0
   14.7508   36.6101   42.4264 H   0  0  0  0  0  0  0  0  0  0  0  0
   14.6310   38.6133   44.8049 H   0  0  0  0  0  0  0  0  0  0  0  0
   14.0835   36.2256   45.0030 H   0  0  0  0  0  0  0  0  0  0  0  0
   12.7409   38.0534   42.4195 H   0  0  0  0  0  0  0  0  0  0  0  0
   12.5005   40.0499   44.4470 H   0  0  0  0  0  0  0  0  0  0  0  0
   14.3919   40.5325   43.2222 H   0  0  0  0  0  0  0  0  0  0  0  0
   13.4054   40.3801   40.6687 H   0  0  0  0  0  0  0  0  0  0  0  0
   14.7938   38.6382   40.8051 H   0  0  0  0  0  0  0  0  0  0  0  0
   16.5032   38.8619   43.2465 H   0  0  0  0  0  0  0  0  0  0  0  0
   17.1714   40.0159   41.2079 H   0  0  0  0  0  0  0  0  0  0  0  0
   15.9109   40.4609   40.0163 H   0  0  0  0  0  0  0  0  0  0  0  0
   15.9150   41.3678   42.7403 H   0  0  0  0  0  0  0  0  0  0  0  0
  2  1  1  0
  2  3  1  0
  4  2  1  0
  4  5  1  0
  6  4  1  0
  6  7  1  0
  8  6  1  0
  9  1  1  0
  9  8  1  0
  8 10  1  0
 11 10  1  0
  1 12  1  0
  1 13  1  0
  2 14  1  1
  3 15  1  0
  4 16  1  6
  5 17  1  0
  6 18  1  1
  7 19  1  0
  8 20  1  6
  9 21  1  0
 10 22  1  0
 10 23  1  0
 11 24  1  0
M  END
