
     RDKit          3D

 48 53  0  0  0  0  0  0  0  0999 V2000
   -5.6313   13.3715   37.2627 C   0  0  0  0  0  0  0  0  0  0  0  0
   -6.0094   13.8242   35.9145 C   0  0  0  0  0  0  0  0  0  0  0  0
   -5.3983   13.3361   34.7352 C   0  0  0  0  0  0  0  0  0  0  0  0
   -5.8876   13.7277   33.4796 C   0  0  0  0  0  0  0  0  0  0  0  0
   -6.9653   14.6167   33.3933 C   0  0  0  0  0  0  0  0  0  0  0  0
   -7.5691   15.1058   34.5553 C   0  0  0  0  0  0  0  0  0  0  0  0
   -7.0999   14.7046   35.8081 C   0  0  0  0  0  0  0  0  0  0  0  0
   -5.1344   12.0432   42.4315 C   0  0  0  0  0  0  0  0  0  0  0  0
   -4.5878   12.6371   37.4789 N   0  0  0  0  0  0  0  0  0  0  0  0
   -4.2970   12.4905   34.7966 O   0  0  0  0  0  0  0  0  0  0  0  0
   -2.9464    9.1384   36.9757 C   0  0  0  0  0  0  0  0  0  0  0  0
   -2.3127    8.7612   35.7067 C   0  0  0  0  0  0  0  0  0  0  0  0
   -1.7914    9.6878   34.7726 C   0  0  0  0  0  0  0  0  0  0  0  0
   -1.1388    9.2238   33.6229 C   0  0  0  0  0  0  0  0  0  0  0  0
   -1.0142    7.8512   33.3938 C   0  0  0  0  0  0  0  0  0  0  0  0
   -1.5297    6.9371   34.3135 C   0  0  0  0  0  0  0  0  0  0  0  0
   -2.1679    7.3876   35.4646 C   0  0  0  0  0  0  0  0  0  0  0  0
   -3.9153   12.0529   43.3571 C   0  0  0  0  0  0  0  0  0  0  0  0
   -3.1784   10.3647   37.3133 N   0  0  0  0  0  0  0  0  0  0  0  0
   -1.9296   11.0573   34.9581 O   0  0  0  0  0  0  0  0  0  0  0  0
   -3.3633   13.3898   43.6666 C   0  0  0  0  0  0  0  0  0  0  0  0
   -2.5570   13.5770   44.6143 O   0  0  0  0  0  0  0  0  0  0  0  0
   -3.7829   14.4616   42.9035 O   0  0  0  0  0  0  0  0  0  0  0  0
   -4.3767   11.9216   38.7015 C   0  0  0  0  0  0  0  0  0  0  0  0
   -3.6687   10.7327   38.6075 C   0  0  0  0  0  0  0  0  0  0  0  0
   -3.4478    9.9441   39.7520 C   0  0  0  0  0  0  0  0  0  0  0  0
   -3.9775   10.3378   40.9740 C   0  0  0  0  0  0  0  0  0  0  0  0
   -4.6784   11.5556   41.0852 C   0  0  0  0  0  0  0  0  0  0  0  0
   -4.8749   12.3496   39.9466 C   0  0  0  0  0  0  0  0  0  0  0  0
   -3.0222   12.0714   36.1219 Fe  0  0  1  0  0  4  0  0  0  0  0  0
   -6.3407   13.5594   38.0589 H   0  0  0  0  0  0  0  0  0  0  0  0
   -5.4223   13.3569   32.5752 H   0  0  0  0  0  0  0  0  0  0  0  0
   -7.3340   14.9246   32.4234 H   0  0  0  0  0  0  0  0  0  0  0  0
   -8.4064   15.7880   34.4837 H   0  0  0  0  0  0  0  0  0  0  0  0
   -7.5949   15.0815   36.6953 H   0  0  0  0  0  0  0  0  0  0  0  0
   -5.9122   11.3589   42.8336 H   0  0  0  0  0  0  0  0  0  0  0  0
   -5.5640   13.0667   42.3585 H   0  0  0  0  0  0  0  0  0  0  0  0
   -3.2016    8.3344   37.6553 H   0  0  0  0  0  0  0  0  0  0  0  0
   -0.7393    9.9273   32.9034 H   0  0  0  0  0  0  0  0  0  0  0  0
   -0.5151    7.4960   32.5015 H   0  0  0  0  0  0  0  0  0  0  0  0
   -1.4266    5.8747   34.1335 H   0  0  0  0  0  0  0  0  0  0  0  0
   -2.5475    6.6542   36.1665 H   0  0  0  0  0  0  0  0  0  0  0  0
   -3.0949   11.4586   42.8962 H   0  0  0  0  0  0  0  0  0  0  0  0
   -4.1708   11.5871   44.3312 H   0  0  0  0  0  0  0  0  0  0  0  0
   -4.5069   14.3608   42.2015 H   0  0  0  0  0  0  0  0  0  0  0  0
   -2.8661    9.0336   39.7128 H   0  0  0  0  0  0  0  0  0  0  0  0
   -3.8331    9.6909   41.8285 H   0  0  0  0  0  0  0  0  0  0  0  0
   -5.3809   13.3010   40.0402 H   0  0  0  0  0  0  0  0  0  0  0  0
  2  1  1  0
  3  2  2  0
  4  3  1  0
  5  4  2  0
  6  5  1  0
  7  6  2  0
  7  2  1  0
  9  1  2  0
 10  3  1  0
 12 11  1  0
 13 12  2  0
 14 13  1  0
 15 14  2  0
 16 15  1  0
 17 16  2  0
 17 12  1  0
 18  8  1  0
 19 11  2  0
 20 13  1  0
 21 18  1  0
 22 21  2  0
 23 21  1  0
 24  9  1  0
 25 19  1  0
 25 24  2  0
 26 25  1  0
 27 26  2  0
 28 27  1  0
 28  8  1  0
 29 28  2  0
 29 24  1  0
 30 19  1  0
 30 20  1  0
 30 10  1  0
 30  9  1  0
  1 31  1  0
  4 32  1  0
  5 33  1  0
  6 34  1  0
  7 35  1  0
  8 36  1  0
  8 37  1  0
 11 38  1  0
 14 39  1  0
 15 40  1  0
 16 41  1  0
 17 42  1  0
 18 43  1  0
 18 44  1  0
 23 45  1  0
 26 46  1  0
 27 47  1  0
 29 48  1  0
M  CHG  2   9   1  19   1
M  END
