
     RDKit          3D

 26 25  0  0  0  0  0  0  0  0999 V2000
   18.9280   28.5501   48.5014 P   0  0  1  0  0  0  0  0  0  0  0  0
   20.4869   30.8504   49.1286 P   0  0  0  0  0  0  0  0  0  0  0  0
   18.4823   26.7465   50.2802 C   0  0  0  0  0  0  0  0  0  0  0  0
   18.1564   28.0793   49.9352 O   0  0  0  0  0  0  0  0  0  0  0  0
   19.2058   27.3288   47.6547 O   0  0  0  0  0  0  0  0  0  0  0  0
   20.3109   31.6064   47.8318 O   0  0  0  0  0  0  0  0  0  0  0  0
   17.2544   25.9013   50.1554 C   0  0  0  0  0  0  0  0  0  0  0  0
   17.8898   29.6101   47.7128 O   0  0  0  0  0  0  0  0  0  0  0  0
   22.0558   31.0487   49.6807 O   0  0  0  0  0  0  0  0  0  0  0  0
   17.2730   24.6120   49.7652 C   0  0  0  0  0  0  0  0  0  0  0  0
   20.4195   29.1810   48.9692 O   0  0  0  0  0  0  0  0  0  0  0  0
   19.4278   31.3839   50.3159 O   0  0  0  0  0  0  0  0  0  0  0  0
   18.5536   23.9128   49.3666 C   0  0  0  0  0  0  0  0  0  0  0  0
   15.9664   23.8676   49.7260 C   0  0  0  0  0  0  0  0  0  0  0  0
   19.2776   26.2651   49.6717 H   0  0  0  0  0  0  0  0  0  0  0  0
   18.8434   26.7255   51.3296 H   0  0  0  0  0  0  0  0  0  0  0  0
   16.3037   26.3650   50.4090 H   0  0  0  0  0  0  0  0  0  0  0  0
   16.9813   29.2702   47.9128 H   0  0  0  0  0  0  0  0  0  0  0  0
   21.9579   31.3317   50.6248 H   0  0  0  0  0  0  0  0  0  0  0  0
   18.5383   31.3943   49.8816 H   0  0  0  0  0  0  0  0  0  0  0  0
   18.4836   22.8280   49.5880 H   0  0  0  0  0  0  0  0  0  0  0  0
   19.4143   24.3505   49.9141 H   0  0  0  0  0  0  0  0  0  0  0  0
   18.7526   24.0235   48.2805 H   0  0  0  0  0  0  0  0  0  0  0  0
   16.1187   22.7825   49.5492 H   0  0  0  0  0  0  0  0  0  0  0  0
   15.3297   24.2670   48.9081 H   0  0  0  0  0  0  0  0  0  0  0  0
   15.4346   23.9896   50.6935 H   0  0  0  0  0  0  0  0  0  0  0  0
  1  4  1  1
  4  3  1  0
  5  1  2  0
  6  2  2  0
  7  3  1  0
  8  1  1  0
  9  2  1  0
 10  7  2  3
 11  2  1  0
 11  1  1  0
 12  2  1  0
 13 10  1  0
 14 10  1  0
  3 15  1  0
  3 16  1  0
  7 17  1  0
  8 18  1  0
  9 19  1  0
 12 20  1  0
 13 21  1  0
 13 22  1  0
 13 23  1  0
 14 24  1  0
 14 25  1  0
 14 26  1  0
M  END
