
     RDKit          3D

 26 25  0  0  0  0  0  0  0  0999 V2000
   15.8187   38.4724   81.5104 P   0  0  1  0  0  0  0  0  0  0  0  0
   14.7224   37.9094   84.0437 P   0  0  0  0  0  0  0  0  0  0  0  0
   14.2649   39.2873   79.7101 C   0  0  0  0  0  0  0  0  0  0  0  0
   15.1064   38.2031   80.0069 O   0  0  0  0  0  0  0  0  0  0  0  0
   16.8073   37.3690   81.8244 O   0  0  0  0  0  0  0  0  0  0  0  0
   15.4935   36.6098   84.0144 O   0  0  0  0  0  0  0  0  0  0  0  0
   14.5077   39.6904   78.2879 C   0  0  0  0  0  0  0  0  0  0  0  0
   16.5863   39.9632   81.4391 O   0  0  0  0  0  0  0  0  0  0  0  0
   15.4610   39.0406   85.0365 O   0  0  0  0  0  0  0  0  0  0  0  0
   13.6476   39.3846   77.3000 C   0  0  0  0  0  0  0  0  0  0  0  0
   14.4902   38.6153   82.5396 O   0  0  0  0  0  0  0  0  0  0  0  0
   13.1601   37.6199   84.5805 O   0  0  0  0  0  0  0  0  0  0  0  0
   12.3897   38.6013   77.5756 C   0  0  0  0  0  0  0  0  0  0  0  0
   13.9384   39.8082   75.8860 C   0  0  0  0  0  0  0  0  0  0  0  0
   13.1992   38.9859   79.8232 H   0  0  0  0  0  0  0  0  0  0  0  0
   14.4903   40.1689   80.3500 H   0  0  0  0  0  0  0  0  0  0  0  0
   15.4127   40.2480   78.0579 H   0  0  0  0  0  0  0  0  0  0  0  0
   17.5397   39.7492   81.2767 H   0  0  0  0  0  0  0  0  0  0  0  0
   16.0646   39.5470   84.4364 H   0  0  0  0  0  0  0  0  0  0  0  0
   12.6342   38.3963   84.2616 H   0  0  0  0  0  0  0  0  0  0  0  0
   11.5811   39.2804   77.9183 H   0  0  0  0  0  0  0  0  0  0  0  0
   12.5804   37.8263   78.3473 H   0  0  0  0  0  0  0  0  0  0  0  0
   12.0380   38.0877   76.6557 H   0  0  0  0  0  0  0  0  0  0  0  0
   13.0410   39.7434   75.2339 H   0  0  0  0  0  0  0  0  0  0  0  0
   14.2997   40.8579   75.8821 H   0  0  0  0  0  0  0  0  0  0  0  0
   14.7272   39.1542   75.4587 H   0  0  0  0  0  0  0  0  0  0  0  0
  4  3  1  0
  1  4  1  6
  5  1  2  0
  6  2  2  0
  7  3  1  0
  8  1  1  0
  9  2  1  0
 10  7  2  3
 11  2  1  0
 11  1  1  0
 12  2  1  0
 13 10  1  0
 14 10  1  0
  3 15  1  0
  3 16  1  0
  7 17  1  0
  8 18  1  0
  9 19  1  0
 12 20  1  0
 13 21  1  0
 13 22  1  0
 13 23  1  0
 14 24  1  0
 14 25  1  0
 14 26  1  0
M  END
