
     RDKit          3D

 35 34  0  0  0  0  0  0  0  0999 V2000
  -56.1954   80.1365   67.1776 C   0  0  0  0  0  0  0  0  0  0  0  0
  -58.1003   83.4307   64.8865 P   0  0  0  0  0  0  0  0  0  0  0  0
  -59.4984   80.1869   73.0210 P   0  0  0  0  0  0  0  0  0  0  0  0
  -57.6582   83.4901   63.4440 O   0  0  0  0  0  0  0  0  0  0  0  0
  -59.6210   82.7308   64.9788 O   0  0  0  0  0  0  0  0  0  0  0  0
  -58.1426   84.9784   65.5348 O   0  0  0  0  0  0  0  0  0  0  0  0
  -60.9326   79.7477   73.1868 O   0  0  0  0  0  0  0  0  0  0  0  0
  -59.4091   81.8615   73.1073 O   0  0  0  0  0  0  0  0  0  0  0  0
  -58.5625   79.5190   74.2402 O   0  0  0  0  0  0  0  0  0  0  0  0
  -57.3776   82.3531   67.0789 C   0  0  0  0  0  0  0  0  0  0  0  0
  -56.9917   82.4823   65.7314 O   0  0  0  0  0  0  0  0  0  0  0  0
  -56.2752   81.5272   67.7785 C   0  0  2  0  0  0  0  0  0  0  0  0
  -55.0350   82.1522   67.5214 O   0  0  0  0  0  0  0  0  0  0  0  0
  -56.4592   81.4365   69.3238 C   0  0  2  0  0  0  0  0  0  0  0  0
  -55.3234   80.8297   69.8915 O   0  0  0  0  0  0  0  0  0  0  0  0
  -57.7639   80.7294   69.7822 C   0  0  2  0  0  0  0  0  0  0  0  0
  -58.8485   81.6200   69.7025 O   0  0  0  0  0  0  0  0  0  0  0  0
  -57.6773   80.1682   71.2092 C   0  0  0  0  0  0  0  0  0  0  0  0
  -58.9401   79.6293   71.5230 O   0  0  0  0  0  0  0  0  0  0  0  0
  -57.2247   79.4976   66.8254 O   0  0  0  0  0  0  0  0  0  0  0  0
  -54.9543   79.5399   67.0476 O   0  0  0  0  0  0  0  0  0  0  0  0
  -59.6652   82.1088   64.2093 H   0  0  0  0  0  0  0  0  0  0  0  0
  -57.1977   85.2752   65.5435 H   0  0  0  0  0  0  0  0  0  0  0  0
  -59.7564   82.0895   74.0063 H   0  0  0  0  0  0  0  0  0  0  0  0
  -58.9481   79.8733   75.0809 H   0  0  0  0  0  0  0  0  0  0  0  0
  -58.3563   81.8302   67.1584 H   0  0  0  0  0  0  0  0  0  0  0  0
  -57.4534   83.3521   67.5657 H   0  0  0  0  0  0  0  0  0  0  0  0
  -55.0627   83.0693   67.9033 H   0  0  0  0  0  0  0  0  0  0  0  0
  -56.4822   82.4751   69.7218 H   0  0  0  0  0  0  0  0  0  0  0  0
  -54.8050   80.3948   69.1665 H   0  0  0  0  0  0  0  0  0  0  0  0
  -57.9808   79.8689   69.1168 H   0  0  0  0  0  0  0  0  0  0  0  0
  -58.6916   82.3556   70.3513 H   0  0  0  0  0  0  0  0  0  0  0  0
  -57.3237   80.9727   71.8963 H   0  0  0  0  0  0  0  0  0  0  0  0
  -56.9379   79.3414   71.2533 H   0  0  0  0  0  0  0  0  0  0  0  0
  -54.8523   78.5333   67.0983 H   0  0  0  0  0  0  0  0  0  0  0  0
  4  2  2  0
  5  2  1  0
  6  2  1  0
  7  3  2  0
  8  3  1  0
  9  3  1  0
 11  2  1  0
 11 10  1  0
 12  1  1  0
 12 10  1  0
 12 13  1  1
 14 12  1  0
 14 15  1  0
 16 14  1  0
 16 17  1  0
 18 16  1  0
 19 18  1  0
 19  3  1  0
 20  1  2  0
 21  1  1  0
  5 22  1  0
  6 23  1  0
  8 24  1  0
  9 25  1  0
 10 26  1  0
 10 27  1  0
 13 28  1  0
 14 29  1  1
 15 30  1  0
 16 31  1  6
 17 32  1  0
 18 33  1  0
 18 34  1  0
 21 35  1  0
M  END
