
     RDKit          3D

 35 34  0  0  0  0  0  0  0  0999 V2000
   21.1238   84.3692   94.9370 C   0  0  0  0  0  0  0  0  0  0  0  0
   22.2128   81.1910   97.8637 P   0  0  0  0  0  0  0  0  0  0  0  0
   19.5152   90.1015   97.2631 P   0  0  0  0  0  0  0  0  0  0  0  0
   22.7989   79.9558   97.2230 O   0  0  0  0  0  0  0  0  0  0  0  0
   23.4419   82.1368   98.5004 O   0  0  0  0  0  0  0  0  0  0  0  0
   21.1569   80.7471   99.0885 O   0  0  0  0  0  0  0  0  0  0  0  0
   20.2728   91.3623   96.9228 O   0  0  0  0  0  0  0  0  0  0  0  0
   19.8889   89.6171   98.8275 O   0  0  0  0  0  0  0  0  0  0  0  0
   17.8688   90.3911   97.1564 O   0  0  0  0  0  0  0  0  0  0  0  0
   20.8744   83.2544   97.1874 C   0  0  0  0  0  0  0  0  0  0  0  0
   21.3826   82.0493   96.6710 O   0  0  0  0  0  0  0  0  0  0  0  0
   20.1417   83.9691   96.0252 C   0  0  2  0  0  0  0  0  0  0  0  0
   19.2321   83.0560   95.4449 O   0  0  0  0  0  0  0  0  0  0  0  0
   19.3343   85.2110   96.4971 C   0  0  2  0  0  0  0  0  0  0  0  0
   18.1207   85.2391   95.7813 O   0  0  0  0  0  0  0  0  0  0  0  0
   20.0907   86.5515   96.3292 C   0  0  2  0  0  0  0  0  0  0  0  0
   20.9786   86.7146   97.4069 O   0  0  0  0  0  0  0  0  0  0  0  0
   19.1428   87.7510   96.3054 C   0  0  0  0  0  0  0  0  0  0  0  0
   19.9351   88.9035   96.1441 O   0  0  0  0  0  0  0  0  0  0  0  0
   22.3565   84.5065   95.1684 O   0  0  0  0  0  0  0  0  0  0  0  0
   20.6435   84.6429   93.6690 O   0  0  0  0  0  0  0  0  0  0  0  0
   23.3452   83.0138   98.0504 H   0  0  0  0  0  0  0  0  0  0  0  0
   20.8612   79.8328   98.8484 H   0  0  0  0  0  0  0  0  0  0  0  0
   20.8606   89.4261   98.8080 H   0  0  0  0  0  0  0  0  0  0  0  0
   17.6411   90.2118   96.2093 H   0  0  0  0  0  0  0  0  0  0  0  0
   21.6968   83.8948   97.5767 H   0  0  0  0  0  0  0  0  0  0  0  0
   20.1513   83.0482   98.0090 H   0  0  0  0  0  0  0  0  0  0  0  0
   18.3238   83.4581   95.4788 H   0  0  0  0  0  0  0  0  0  0  0  0
   19.1156   85.0793   97.5860 H   0  0  0  0  0  0  0  0  0  0  0  0
   18.3073   84.9221   94.8588 H   0  0  0  0  0  0  0  0  0  0  0  0
   20.6454   86.5610   95.3637 H   0  0  0  0  0  0  0  0  0  0  0  0
   21.6145   85.9521   97.3864 H   0  0  0  0  0  0  0  0  0  0  0  0
   18.5171   87.7354   97.2286 H   0  0  0  0  0  0  0  0  0  0  0  0
   18.4609   87.6762   95.4313 H   0  0  0  0  0  0  0  0  0  0  0  0
   21.2691   84.6888   92.8735 H   0  0  0  0  0  0  0  0  0  0  0  0
  4  2  2  0
  5  2  1  0
  6  2  1  0
  7  3  2  0
  8  3  1  0
  9  3  1  0
 11 10  1  0
 11  2  1  0
 12 10  1  0
 12  1  1  0
 12 13  1  6
 14 12  1  0
 14 15  1  0
 16 14  1  0
 16 17  1  0
 18 16  1  0
 19 18  1  0
 19  3  1  0
 20  1  2  0
 21  1  1  0
  5 22  1  0
  6 23  1  0
  8 24  1  0
  9 25  1  0
 10 26  1  0
 10 27  1  0
 13 28  1  0
 14 29  1  1
 15 30  1  0
 16 31  1  6
 17 32  1  0
 18 33  1  0
 18 34  1  0
 21 35  1  0
M  END
