
     RDKit          3D

 41 42  0  0  0  0  0  0  0  0999 V2000
   -5.9340   39.0934   -1.8922 P   0  0  2  0  0  0  0  0  0  0  0  0
   -5.5110   38.6481   -4.6680 P   0  0  0  0  0  0  0  0  0  0  0  0
   -8.4401   38.4921   -2.0491 C   0  0  0  0  0  0  0  0  0  0  0  0
   -7.5418   39.5676   -1.9744 O   0  0  0  0  0  0  0  0  0  0  0  0
   -9.6549   38.8666   -1.1731 C   0  0  1  0  0  0  0  0  0  0  0  0
   -9.7334   38.0379   -0.0260 O   0  0  0  0  0  0  0  0  0  0  0  0
   -9.5890   40.3199   -0.6779 C   0  0  1  0  0  0  0  0  0  0  0  0
  -10.0829   41.2432   -1.6139 O   0  0  0  0  0  0  0  0  0  0  0  0
  -10.3676   40.2700    0.6033 C   0  0  0  0  0  0  0  0  0  0  0  0
  -10.1151   38.8425    1.0874 C   0  0  2  0  0  0  0  0  0  0  0  0
   -9.0810   38.8131    2.1546 N   0  0  0  0  0  0  0  0  0  0  0  0
   -5.8278   37.5898   -1.8184 O   0  0  0  0  0  0  0  0  0  0  0  0
   -5.1412   39.5916   -5.7877 O   0  0  0  0  0  0  0  0  0  0  0  0
   -9.2218   39.5647    3.2964 C   0  0  0  0  0  0  0  0  0  0  0  0
  -10.2359   40.2948    3.4571 O   0  0  0  0  0  0  0  0  0  0  0  0
   -5.2954   39.7620   -0.4870 O   0  0  0  0  0  0  0  0  0  0  0  0
   -7.1679   38.3693   -4.6719 O   0  0  0  0  0  0  0  0  0  0  0  0
   -8.2662   39.5362    4.2678 N   0  0  0  0  0  0  0  0  0  0  0  0
   -5.0982   39.5238   -3.2883 O   0  0  0  0  0  0  0  0  0  0  0  0
   -4.7019   37.1882   -4.8676 O   0  0  0  0  0  0  0  0  0  0  0  0
   -7.1551   38.7660    4.1361 C   0  0  0  0  0  0  0  0  0  0  0  0
   -6.2844   38.7508    5.0468 O   0  0  0  0  0  0  0  0  0  0  0  0
   -6.9789   37.9931    2.9894 C   0  0  0  0  0  0  0  0  0  0  0  0
   -5.7546   37.1414    2.8030 C   0  0  0  0  0  0  0  0  0  0  0  0
   -7.9571   38.0516    1.9980 C   0  0  0  0  0  0  0  0  0  0  0  0
   -8.0023   37.5421   -1.6695 H   0  0  0  0  0  0  0  0  0  0  0  0
   -8.7686   38.3571   -3.1028 H   0  0  0  0  0  0  0  0  0  0  0  0
  -10.5806   38.7050   -1.7697 H   0  0  0  0  0  0  0  0  0  0  0  0
   -8.5700   40.6496   -0.3875 H   0  0  0  0  0  0  0  0  0  0  0  0
  -11.0305   41.0129   -1.7999 H   0  0  0  0  0  0  0  0  0  0  0  0
  -10.0241   41.0416    1.3275 H   0  0  0  0  0  0  0  0  0  0  0  0
  -11.4540   40.4108    0.4085 H   0  0  0  0  0  0  0  0  0  0  0  0
  -11.0643   38.4253    1.4916 H   0  0  0  0  0  0  0  0  0  0  0  0
   -5.4933   40.7300   -0.5483 H   0  0  0  0  0  0  0  0  0  0  0  0
   -7.3925   38.1944   -5.6205 H   0  0  0  0  0  0  0  0  0  0  0  0
   -8.3903   40.1155    5.1298 H   0  0  0  0  0  0  0  0  0  0  0  0
   -5.4144   36.5003   -4.8686 H   0  0  0  0  0  0  0  0  0  0  0  0
   -4.8952   37.7854    2.5220 H   0  0  0  0  0  0  0  0  0  0  0  0
   -5.5131   36.6017    3.7431 H   0  0  0  0  0  0  0  0  0  0  0  0
   -5.9091   36.3805    2.0085 H   0  0  0  0  0  0  0  0  0  0  0  0
   -7.8098   37.4597    1.1074 H   0  0  0  0  0  0  0  0  0  0  0  0
  4  3  1  0
  1  4  1  6
  5  3  1  0
  6  5  1  0
  7  5  1  0
  7  8  1  0
  9  7  1  0
 10  6  1  0
 10  9  1  0
 10 11  1  0
 12  1  2  0
 13  2  2  0
 14 11  1  0
 15 14  2  0
 16  1  1  0
 17  2  1  0
 18 14  1  0
 19  1  1  0
 19  2  1  0
 20  2  1  0
 21 18  1  0
 22 21  2  0
 23 21  1  0
 24 23  1  0
 25 23  2  0
 25 11  1  0
  3 26  1  0
  3 27  1  0
  5 28  1  6
  7 29  1  1
  8 30  1  0
  9 31  1  0
  9 32  1  0
 10 33  1  1
 16 34  1  0
 17 35  1  0
 18 36  1  0
 20 37  1  0
 24 38  1  0
 24 39  1  0
 24 40  1  0
 25 41  1  0
M  END
