
     RDKit          3D

 57 59  0  0  0  0  0  0  0  0999 V2000
   18.1115  -13.1291   21.2214 C   0  0  1  0  0  0  0  0  0  0  0  0
   18.3384  -14.4355   21.8060 N   0  0  0  0  0  0  0  0  0  0  0  0
   19.1772  -12.9971   20.1405 C   0  0  0  0  0  0  0  0  0  0  0  0
   20.2746  -13.9552   20.5820 C   0  0  0  0  0  0  0  0  0  0  0  0
   19.5402  -15.0702   21.2976 C   0  0  0  0  0  0  0  0  0  0  0  0
   17.8753  -16.1884   23.6125 C   0  0  1  0  0  0  0  0  0  0  0  0
   19.5024  -14.9571   25.1144 C   0  0  0  0  0  0  0  0  0  0  0  0
   16.7413  -13.0620   20.6334 C   0  0  0  0  0  0  0  0  0  0  0  0
   20.7580  -15.5550   24.9084 C   0  0  0  0  0  0  0  0  0  0  0  0
   21.9213  -14.7780   24.9217 C   0  0  0  0  0  0  0  0  0  0  0  0
   21.8455  -13.4060   25.1724 C   0  0  0  0  0  0  0  0  0  0  0  0
   20.6036  -12.8065   25.3965 C   0  0  0  0  0  0  0  0  0  0  0  0
   19.4357  -13.5752   25.3580 C   0  0  0  0  0  0  0  0  0  0  0  0
   16.7935  -17.1767   23.6098 N   0  0  0  0  0  0  0  0  0  0  0  0
   17.4816  -14.9755   22.8132 C   0  0  0  0  0  0  0  0  0  0  0  0
   11.1878  -11.4872   23.4412 C   0  0  0  0  0  0  0  0  0  0  0  0
   16.1744  -11.9446   20.4950 O   0  0  0  0  0  0  0  0  0  0  0  0
   16.0718  -14.2571   20.2575 N   0  0  0  0  0  0  0  0  0  0  0  0
   14.7379  -14.2046   19.6807 C   0  0  0  0  0  0  0  0  0  0  0  0
   13.8223  -13.4896   20.6273 C   0  0  0  0  0  0  0  0  0  0  0  0
   12.8366  -12.6090   20.1591 C   0  0  0  0  0  0  0  0  0  0  0  0
   11.9789  -11.9631   21.0618 C   0  0  0  0  0  0  0  0  0  0  0  0
   12.0929  -12.1832   22.4542 C   0  0  0  0  0  0  0  0  0  0  0  0
   13.0889  -13.0758   22.8978 C   0  0  0  0  0  0  0  0  0  0  0  0
   13.9259  -13.7323   21.9972 C   0  0  0  0  0  0  0  0  0  0  0  0
   16.3797  -14.4119   23.0483 O   0  0  0  0  0  0  0  0  0  0  0  0
   18.2403  -15.7901   25.0558 C   0  0  0  0  0  0  0  0  0  0  0  0
   11.0132  -11.9479   24.6490 N   0  0  0  0  0  0  0  0  0  0  0  0
   10.4940  -10.2952   23.0659 N   0  0  0  0  0  0  0  0  0  0  0  0
   18.2523  -12.3485   22.0020 H   0  0  0  0  0  0  0  0  0  0  0  0
   18.7986  -13.3167   19.1428 H   0  0  0  0  0  0  0  0  0  0  0  0
   19.5568  -11.9546   20.0715 H   0  0  0  0  0  0  0  0  0  0  0  0
   20.8544  -14.3398   19.7153 H   0  0  0  0  0  0  0  0  0  0  0  0
   20.9606  -13.4379   21.2897 H   0  0  0  0  0  0  0  0  0  0  0  0
   20.1760  -15.4556   22.1066 H   0  0  0  0  0  0  0  0  0  0  0  0
   19.2670  -15.8850   20.5925 H   0  0  0  0  0  0  0  0  0  0  0  0
   18.7589  -16.6816   23.1565 H   0  0  0  0  0  0  0  0  0  0  0  0
   20.8323  -16.6186   24.7189 H   0  0  0  0  0  0  0  0  0  0  0  0
   22.8830  -15.2428   24.7475 H   0  0  0  0  0  0  0  0  0  0  0  0
   22.7473  -12.8078   25.1911 H   0  0  0  0  0  0  0  0  0  0  0  0
   20.5440  -11.7427   25.5869 H   0  0  0  0  0  0  0  0  0  0  0  0
   18.4795  -13.0918   25.5147 H   0  0  0  0  0  0  0  0  0  0  0  0
   16.6761  -17.5768   24.5697 H   0  0  0  0  0  0  0  0  0  0  0  0
   15.8985  -16.6973   23.3557 H   0  0  0  0  0  0  0  0  0  0  0  0
   16.5589  -15.1788   20.3319 H   0  0  0  0  0  0  0  0  0  0  0  0
   14.7905  -13.6743   18.7051 H   0  0  0  0  0  0  0  0  0  0  0  0
   14.3368  -15.2171   19.4595 H   0  0  0  0  0  0  0  0  0  0  0  0
   12.7255  -12.4277   19.0973 H   0  0  0  0  0  0  0  0  0  0  0  0
   11.2115  -11.3163   20.6604 H   0  0  0  0  0  0  0  0  0  0  0  0
   13.2602  -13.2552   23.9489 H   0  0  0  0  0  0  0  0  0  0  0  0
   14.6754  -14.4149   22.3793 H   0  0  0  0  0  0  0  0  0  0  0  0
   17.3909  -15.2465   25.5260 H   0  0  0  0  0  0  0  0  0  0  0  0
   18.3987  -16.7130   25.6557 H   0  0  0  0  0  0  0  0  0  0  0  0
   11.4241  -12.8463   24.9798 H   0  0  0  0  0  0  0  0  0  0  0  0
   10.3940  -11.4459   25.3242 H   0  0  0  0  0  0  0  0  0  0  0  0
   10.9947   -9.3799   23.0167 H   0  0  0  0  0  0  0  0  0  0  0  0
    9.5037  -10.3169   22.7398 H   0  0  0  0  0  0  0  0  0  0  0  0
  2  1  1  0
  3  1  1  0
  4  3  1  0
  5  4  1  0
  5  2  1  0
  1  8  1  0
  9  7  2  0
 10  9  1  0
 11 10  2  0
 12 11  1  0
 13 12  2  0
 13  7  1  0
  6 14  1  0
 15  2  1  0
 15  6  1  0
 17  8  2  0
 18  8  1  0
 19 18  1  0
 20 19  1  0
 21 20  2  0
 22 21  1  0
 23 16  1  0
 23 22  2  0
 24 23  1  0
 25 20  1  0
 25 24  2  0
 26 15  2  0
 27  7  1  0
 27  6  1  0
 28 16  2  0
 29 16  1  0
  1 30  1  1
  3 31  1  0
  3 32  1  0
  4 33  1  0
  4 34  1  0
  5 35  1  0
  5 36  1  0
  6 37  1  6
  9 38  1  0
 10 39  1  0
 11 40  1  0
 12 41  1  0
 13 42  1  0
 14 43  1  0
 14 44  1  0
 18 45  1  0
 19 46  1  0
 19 47  1  0
 21 48  1  0
 22 49  1  0
 24 50  1  0
 25 51  1  0
 27 52  1  0
 27 53  1  0
 28 54  1  0
 28 55  1  0
 29 56  1  0
 29 57  1  0
M  CHG  1  28   1
M  END
