
     RDKit          3D

 16 15  0  0  0  0  0  0  0  0999 V2000
  -28.3353   14.8794   58.5628 P   0  0  0  0  0  0  0  0  0  0  0  0
  -27.0153   15.6399   59.2919 O   0  0  0  0  0  0  0  0  0  0  0  0
  -29.5383   15.7708   58.7472 O   0  0  0  0  0  0  0  0  0  0  0  0
  -28.6457   13.4091   59.3053 O   0  0  0  0  0  0  0  0  0  0  0  0
  -28.0332   14.6602   56.9212 O   0  0  0  0  0  0  0  0  0  0  0  0
  -25.2061   14.8466   58.0800 C   0  0  0  0  0  0  0  0  0  0  0  0
  -25.7668   15.3858   57.0863 O   0  0  0  0  0  0  0  0  0  0  0  0
  -25.9174   14.7661   59.3995 C   0  0  0  0  0  0  0  0  0  0  0  0
  -23.8509   14.4348   57.9877 N   0  0  0  0  0  0  0  0  0  0  0  0
  -23.1759   14.6306   56.8308 O   0  0  0  0  0  0  0  0  0  0  0  0
  -29.4766   13.0724   58.8849 H   0  0  0  0  0  0  0  0  0  0  0  0
  -28.8991   14.3840   56.5291 H   0  0  0  0  0  0  0  0  0  0  0  0
  -25.2288   15.0744   60.2167 H   0  0  0  0  0  0  0  0  0  0  0  0
  -26.2577   13.7202   59.5625 H   0  0  0  0  0  0  0  0  0  0  0  0
  -23.3541   14.0279   58.8116 H   0  0  0  0  0  0  0  0  0  0  0  0
  -22.2208   14.5179   57.0715 H   0  0  0  0  0  0  0  0  0  0  0  0
  2  1  1  0
  3  1  2  0
  4  1  1  0
  5  1  1  0
  7  6  2  0
  8  6  1  0
  8  2  1  0
  9  6  1  0
 10  9  1  0
  4 11  1  0
  5 12  1  0
  8 13  1  0
  8 14  1  0
  9 15  1  0
 10 16  1  0
M  END
