
     RDKit          3D

 59 61  0  0  0  0  0  0  0  0999 V2000
   36.0815   72.2070   -5.6923 C   0  0  0  0  0  0  0  0  0  0  0  0
   36.7415   67.8937   -2.7068 O   0  0  0  0  0  0  0  0  0  0  0  0
   35.8187   73.5034   -6.1846 C   0  0  0  0  0  0  0  0  0  0  0  0
   37.0411   72.0255   -4.6766 C   0  0  0  0  0  0  0  0  0  0  0  0
   35.3741   71.0284   -6.3098 C   0  0  0  0  0  0  0  0  0  0  0  0
   36.4585   74.6128   -5.6231 C   0  0  0  0  0  0  0  0  0  0  0  0
   34.8160   73.7157   -7.2950 C   0  0  0  0  0  0  0  0  0  0  0  0
   36.6424   66.5830   -2.1666 C   0  0  0  0  0  0  0  0  0  0  0  0
   37.4969   70.3887   -4.0905 S   0  0  0  0  0  0  0  0  0  0  0  0
   37.7101   73.1343   -4.1465 C   0  0  0  0  0  0  0  0  0  0  0  0
   37.4101   74.4211   -4.6030 C   0  0  0  0  0  0  0  0  0  0  0  0
   37.6605   66.4003   -1.1262 C   0  0  0  0  0  0  0  0  0  0  0  0
   36.1108   75.8804   -6.1143 O   0  0  0  0  0  0  0  0  0  0  0  0
   36.4658   70.2872   -2.6128 C   0  0  0  0  0  0  0  0  0  0  0  0
   36.4643   77.1116   -5.5036 C   0  0  0  0  0  0  0  0  0  0  0  0
   36.2435   69.0252   -2.0510 C   0  0  0  0  0  0  0  0  0  0  0  0
   35.9860   71.4247   -1.9454 C   0  0  0  0  0  0  0  0  0  0  0  0
   37.7148   77.6499   -6.1081 C   0  0  0  0  0  0  0  0  0  0  0  0
   35.5415   68.9203   -0.8304 C   0  0  0  0  0  0  0  0  0  0  0  0
   38.5346   66.2218   -0.3116 C   0  0  0  0  0  0  0  0  0  0  0  0
   35.2745   71.3092   -0.7543 C   0  0  0  0  0  0  0  0  0  0  0  0
   38.2431   77.0900   -7.1020 O   0  0  0  0  0  0  0  0  0  0  0  0
   38.2808   78.7978   -5.5949 O   0  0  0  0  0  0  0  0  0  0  0  0
   35.0455   70.0565   -0.1889 C   0  0  0  0  0  0  0  0  0  0  0  0
   34.3240   69.9495    1.1218 C   0  0  0  0  0  0  0  0  0  0  0  0
   33.2202   70.8513    1.1551 O   0  0  0  0  0  0  0  0  0  0  0  0
   31.9289   70.5294    0.7284 C   0  0  0  0  0  0  0  0  0  0  0  0
   31.6866   69.6040   -0.2981 C   0  0  0  0  0  0  0  0  0  0  0  0
   30.8528   71.1312    1.3849 C   0  0  0  0  0  0  0  0  0  0  0  0
   30.3786   69.2658   -0.6357 C   0  0  0  0  0  0  0  0  0  0  0  0
   29.5441   70.7835    1.0594 C   0  0  0  0  0  0  0  0  0  0  0  0
   29.2978   69.8380    0.0543 C   0  0  0  0  0  0  0  0  0  0  0  0
   27.8900   69.4282   -0.2605 C   0  0  0  0  0  0  0  0  0  0  0  0
   27.2345   70.4576   -0.8964 F   0  0  0  0  0  0  0  0  0  0  0  0
   27.2225   69.0938    0.8959 F   0  0  0  0  0  0  0  0  0  0  0  0
   27.8706   68.3218   -1.0738 F   0  0  0  0  0  0  0  0  0  0  0  0
   35.9092   70.0741   -6.1385 H   0  0  0  0  0  0  0  0  0  0  0  0
   34.3711   70.8791   -5.8594 H   0  0  0  0  0  0  0  0  0  0  0  0
   35.2703   71.1876   -7.4035 H   0  0  0  0  0  0  0  0  0  0  0  0
   34.9486   72.9581   -8.0953 H   0  0  0  0  0  0  0  0  0  0  0  0
   33.7868   73.6452   -6.8847 H   0  0  0  0  0  0  0  0  0  0  0  0
   34.9266   74.6992   -7.7955 H   0  0  0  0  0  0  0  0  0  0  0  0
   36.8606   65.8595   -2.9786 H   0  0  0  0  0  0  0  0  0  0  0  0
   35.6216   66.3516   -1.7987 H   0  0  0  0  0  0  0  0  0  0  0  0
   38.4550   73.0026   -3.3718 H   0  0  0  0  0  0  0  0  0  0  0  0
   37.9246   75.2574   -4.1522 H   0  0  0  0  0  0  0  0  0  0  0  0
   35.6467   77.8413   -5.6776 H   0  0  0  0  0  0  0  0  0  0  0  0
   36.5871   76.9805   -4.4070 H   0  0  0  0  0  0  0  0  0  0  0  0
   36.1618   72.4206   -2.3156 H   0  0  0  0  0  0  0  0  0  0  0  0
   35.3806   67.9658   -0.3527 H   0  0  0  0  0  0  0  0  0  0  0  0
   39.3002   66.0659    0.4021 H   0  0  0  0  0  0  0  0  0  0  0  0
   34.9266   72.2089   -0.2614 H   0  0  0  0  0  0  0  0  0  0  0  0
   39.2820   78.9480   -5.6348 H   0  0  0  0  0  0  0  0  0  0  0  0
   35.0315   70.2281    1.9304 H   0  0  0  0  0  0  0  0  0  0  0  0
   33.9768   68.9111    1.3200 H   0  0  0  0  0  0  0  0  0  0  0  0
   32.5045   69.1379   -0.8299 H   0  0  0  0  0  0  0  0  0  0  0  0
   31.0341   71.8498    2.1743 H   0  0  0  0  0  0  0  0  0  0  0  0
   30.2218   68.5455   -1.4283 H   0  0  0  0  0  0  0  0  0  0  0  0
   28.7225   71.2427    1.5955 H   0  0  0  0  0  0  0  0  0  0  0  0
  3  1  2  0
  4  1  1  0
  5  1  1  0
  6  3  1  0
  7  3  1  0
  8  2  1  0
  9  4  1  0
 10  4  2  0
 11  6  2  0
 11 10  1  0
 12  8  1  0
 13  6  1  0
 14  9  1  0
 15 13  1  0
 16 14  2  0
 16  2  1  0
 17 14  1  0
 18 15  1  0
 19 16  1  0
 20 12  3  0
 21 17  2  0
 22 18  2  0
 23 18  1  0
 24 21  1  0
 24 19  2  0
 25 24  1  0
 26 25  1  0
 27 26  1  0
 28 27  2  0
 29 27  1  0
 30 28  1  0
 31 29  2  0
 32 31  1  0
 32 30  2  0
 33 32  1  0
 33 34  1  0
 35 33  1  0
 36 33  1  0
  5 37  1  0
  5 38  1  0
  5 39  1  0
  7 40  1  0
  7 41  1  0
  7 42  1  0
  8 43  1  0
  8 44  1  0
 10 45  1  0
 11 46  1  0
 15 47  1  0
 15 48  1  0
 17 49  1  0
 19 50  1  0
 20 51  1  0
 21 52  1  0
 23 53  1  0
 25 54  1  0
 25 55  1  0
 28 56  1  0
 29 57  1  0
 30 58  1  0
 31 59  1  0
M  END
