
     RDKit          3D

 59 61  0  0  0  0  0  0  0  0999 V2000
   36.1236   70.8793   -4.9161 C   0  0  0  0  0  0  0  0  0  0  0  0
   36.7423   66.4375   -2.2385 O   0  0  0  0  0  0  0  0  0  0  0  0
   35.8554   72.1765   -5.4037 C   0  0  0  0  0  0  0  0  0  0  0  0
   37.0869   70.6977   -3.9039 C   0  0  0  0  0  0  0  0  0  0  0  0
   35.4179   69.7005   -5.5350 C   0  0  0  0  0  0  0  0  0  0  0  0
   36.4936   73.2861   -4.8408 C   0  0  0  0  0  0  0  0  0  0  0  0
   34.8487   72.3890   -6.5103 C   0  0  0  0  0  0  0  0  0  0  0  0
   36.6450   65.0912   -1.7940 C   0  0  0  0  0  0  0  0  0  0  0  0
   37.5494   69.0606   -3.3241 S   0  0  0  0  0  0  0  0  0  0  0  0
   37.7541   71.8069   -3.3725 C   0  0  0  0  0  0  0  0  0  0  0  0
   37.4488   73.0942   -3.8242 C   0  0  0  0  0  0  0  0  0  0  0  0
   37.4603   64.9101   -0.5878 C   0  0  0  0  0  0  0  0  0  0  0  0
   36.1405   74.5541   -5.3270 O   0  0  0  0  0  0  0  0  0  0  0  0
   36.2699   68.7965   -2.0790 C   0  0  0  0  0  0  0  0  0  0  0  0
   36.4922   75.7845   -4.7137 C   0  0  0  0  0  0  0  0  0  0  0  0
   36.0440   67.4892   -1.6346 C   0  0  0  0  0  0  0  0  0  0  0  0
   35.5867   69.8547   -1.4600 C   0  0  0  0  0  0  0  0  0  0  0  0
   37.6823   76.3772   -5.3856 C   0  0  0  0  0  0  0  0  0  0  0  0
   35.1353   67.2600   -0.5785 C   0  0  0  0  0  0  0  0  0  0  0  0
   38.1769   64.7381    0.3695 C   0  0  0  0  0  0  0  0  0  0  0  0
   34.6751   69.6162   -0.4352 C   0  0  0  0  0  0  0  0  0  0  0  0
   38.1630   75.8554   -6.4234 O   0  0  0  0  0  0  0  0  0  0  0  0
   38.2422   77.5336   -4.8849 O   0  0  0  0  0  0  0  0  0  0  0  0
   34.4413   68.3174    0.0120 C   0  0  0  0  0  0  0  0  0  0  0  0
   33.4967   68.0791    1.1526 C   0  0  0  0  0  0  0  0  0  0  0  0
   32.4833   69.0818    1.1747 O   0  0  0  0  0  0  0  0  0  0  0  0
   31.2634   68.9816    0.5002 C   0  0  0  0  0  0  0  0  0  0  0  0
   31.1265   68.2699   -0.7013 C   0  0  0  0  0  0  0  0  0  0  0  0
   30.1438   69.5849    1.0777 C   0  0  0  0  0  0  0  0  0  0  0  0
   29.8735   68.1410   -1.2948 C   0  0  0  0  0  0  0  0  0  0  0  0
   28.8871   69.4448    0.4941 C   0  0  0  0  0  0  0  0  0  0  0  0
   28.7409   68.7105   -0.6909 C   0  0  0  0  0  0  0  0  0  0  0  0
   27.3799   68.5188   -1.2908 C   0  0  0  0  0  0  0  0  0  0  0  0
   26.9333   69.7057   -1.8254 F   0  0  0  0  0  0  0  0  0  0  0  0
   26.4961   68.0768   -0.3326 F   0  0  0  0  0  0  0  0  0  0  0  0
   27.4096   67.5699   -2.2831 F   0  0  0  0  0  0  0  0  0  0  0  0
   34.3514   69.6421   -5.2425 H   0  0  0  0  0  0  0  0  0  0  0  0
   35.4076   69.7729   -6.6422 H   0  0  0  0  0  0  0  0  0  0  0  0
   35.9235   68.7610   -5.2289 H   0  0  0  0  0  0  0  0  0  0  0  0
   34.9811   71.6343   -7.3134 H   0  0  0  0  0  0  0  0  0  0  0  0
   33.8210   72.3143   -6.0972 H   0  0  0  0  0  0  0  0  0  0  0  0
   34.9548   73.3744   -7.0083 H   0  0  0  0  0  0  0  0  0  0  0  0
   37.0673   64.4372   -2.5842 H   0  0  0  0  0  0  0  0  0  0  0  0
   35.5942   64.7696   -1.6411 H   0  0  0  0  0  0  0  0  0  0  0  0
   38.5018   71.6751   -2.6004 H   0  0  0  0  0  0  0  0  0  0  0  0
   37.9621   73.9307   -3.3723 H   0  0  0  0  0  0  0  0  0  0  0  0
   35.6413   76.4890   -4.8187 H   0  0  0  0  0  0  0  0  0  0  0  0
   36.6904   75.6362   -3.6304 H   0  0  0  0  0  0  0  0  0  0  0  0
   35.7515   70.8817   -1.7390 H   0  0  0  0  0  0  0  0  0  0  0  0
   34.9617   66.2683   -0.1892 H   0  0  0  0  0  0  0  0  0  0  0  0
   38.8044   64.5879    1.2083 H   0  0  0  0  0  0  0  0  0  0  0  0
   34.1722   70.4574    0.0263 H   0  0  0  0  0  0  0  0  0  0  0  0
   37.7273   78.4061   -4.8893 H   0  0  0  0  0  0  0  0  0  0  0  0
   34.0738   68.1401    2.0988 H   0  0  0  0  0  0  0  0  0  0  0  0
   33.0348   67.0681    1.1036 H   0  0  0  0  0  0  0  0  0  0  0  0
   31.9825   67.8081   -1.1737 H   0  0  0  0  0  0  0  0  0  0  0  0
   30.2448   70.1395    2.0022 H   0  0  0  0  0  0  0  0  0  0  0  0
   29.7970   67.5825   -2.2189 H   0  0  0  0  0  0  0  0  0  0  0  0
   28.0263   69.8995    0.9689 H   0  0  0  0  0  0  0  0  0  0  0  0
  3  1  2  0
  4  1  1  0
  5  1  1  0
  6  3  1  0
  7  3  1  0
  8  2  1  0
  9  4  1  0
 10  4  2  0
 11  6  2  0
 11 10  1  0
 12  8  1  0
 13  6  1  0
 14  9  1  0
 15 13  1  0
 16 14  2  0
 16  2  1  0
 17 14  1  0
 18 15  1  0
 19 16  1  0
 20 12  3  0
 21 17  2  0
 22 18  2  0
 23 18  1  0
 24 21  1  0
 24 19  2  0
 25 24  1  0
 26 25  1  0
 27 26  1  0
 28 27  2  0
 29 27  1  0
 30 28  1  0
 31 29  2  0
 32 31  1  0
 32 30  2  0
 33 32  1  0
 33 34  1  0
 35 33  1  0
 36 33  1  0
  5 37  1  0
  5 38  1  0
  5 39  1  0
  7 40  1  0
  7 41  1  0
  7 42  1  0
  8 43  1  0
  8 44  1  0
 10 45  1  0
 11 46  1  0
 15 47  1  0
 15 48  1  0
 17 49  1  0
 19 50  1  0
 20 51  1  0
 21 52  1  0
 23 53  1  0
 25 54  1  0
 25 55  1  0
 28 56  1  0
 29 57  1  0
 30 58  1  0
 31 59  1  0
M  END
