
     RDKit          3D

 49 51  0  0  0  0  0  0  0  0999 V2000
   -8.1419   68.8586  -69.6958 P   0  0  2  0  0  0  0  0  0  0  0  0
   -9.7918   66.6515  -69.1175 P   0  0  1  0  0  0  0  0  0  0  0  0
  -10.1706   65.4697  -66.4385 P   0  0  0  0  0  0  0  0  0  0  0  0
   -5.6912   68.2288  -70.0039 C   0  0  0  0  0  0  0  0  0  0  0  0
   -6.6998   69.0602  -70.5304 O   0  0  0  0  0  0  0  0  0  0  0  0
   -4.3598   68.7392  -70.5689 C   0  0  1  0  0  0  0  0  0  0  0  0
   -4.3899   68.6165  -71.9838 O   0  0  0  0  0  0  0  0  0  0  0  0
   -4.1383   70.2195  -70.1990 C   0  0  1  0  0  0  0  0  0  0  0  0
   -2.7794   70.4597  -69.9222 O   0  0  0  0  0  0  0  0  0  0  0  0
   -4.5785   70.9299  -71.4655 C   0  0  1  0  0  0  0  0  0  0  0  0
   -3.9504   72.1707  -71.6738 O   0  0  0  0  0  0  0  0  0  0  0  0
   -4.2481   69.9049  -72.5457 C   0  0  2  0  0  0  0  0  0  0  0  0
   -4.4394   70.6193  -77.6552 N   0  0  0  0  0  0  0  0  0  0  0  0
   -9.1628   69.7749  -70.3292 O   0  0  0  0  0  0  0  0  0  0  0  0
  -10.3274   65.5056  -69.9406 O   0  0  0  0  0  0  0  0  0  0  0  0
   -9.3533   65.0755  -65.2334 O   0  0  0  0  0  0  0  0  0  0  0  0
   -3.3419   70.5784  -76.8266 C   0  0  0  0  0  0  0  0  0  0  0  0
   -2.0380   70.7366  -77.3721 N   0  0  0  0  0  0  0  0  0  0  0  0
   -7.8998   69.2409  -68.0760 O   0  0  0  0  0  0  0  0  0  0  0  0
  -10.9917   67.7993  -68.8982 O   0  0  0  0  0  0  0  0  0  0  0  0
  -11.3125   66.5990  -65.9793 O   0  0  0  0  0  0  0  0  0  0  0  0
   -3.4923   70.3872  -75.4814 N   0  0  0  0  0  0  0  0  0  0  0  0
   -9.0601   66.0977  -67.6272 N   0  0  0  0  0  0  0  0  0  0  0  0
   -8.4965   67.2400  -70.0035 O   0  0  0  0  0  0  0  0  0  0  0  0
  -10.9818   64.1218  -67.0083 O   0  0  0  0  0  0  0  0  0  0  0  0
   -4.7517   70.2451  -74.9984 C   0  0  0  0  0  0  0  0  0  0  0  0
   -5.8557   70.2805  -75.7926 C   0  0  0  0  0  0  0  0  0  0  0  0
   -5.7102   70.4726  -77.1721 C   0  0  0  0  0  0  0  0  0  0  0  0
   -6.6970   70.5122  -77.9587 O   0  0  0  0  0  0  0  0  0  0  0  0
   -6.9704   70.1032  -75.0497 N   0  0  0  0  0  0  0  0  0  0  0  0
   -6.4769   69.9605  -73.7884 C   0  0  0  0  0  0  0  0  0  0  0  0
   -5.1190   70.0467  -73.7228 N   0  0  0  0  0  0  0  0  0  0  0  0
   -5.6428   68.2713  -68.8915 H   0  0  0  0  0  0  0  0  0  0  0  0
   -5.8504   67.1770  -70.3286 H   0  0  0  0  0  0  0  0  0  0  0  0
   -3.5387   68.1062  -70.1661 H   0  0  0  0  0  0  0  0  0  0  0  0
   -4.7624   70.5540  -69.3363 H   0  0  0  0  0  0  0  0  0  0  0  0
   -2.3862   70.8382  -70.7515 H   0  0  0  0  0  0  0  0  0  0  0  0
   -5.6735   71.1100  -71.4229 H   0  0  0  0  0  0  0  0  0  0  0  0
   -2.9822   72.0168  -71.8271 H   0  0  0  0  0  0  0  0  0  0  0  0
   -3.1849   70.0141  -72.8572 H   0  0  0  0  0  0  0  0  0  0  0  0
   -4.3012   70.7656  -78.6811 H   0  0  0  0  0  0  0  0  0  0  0  0
   -1.4689   69.8993  -77.6277 H   0  0  0  0  0  0  0  0  0  0  0  0
   -1.6334   71.6871  -77.5239 H   0  0  0  0  0  0  0  0  0  0  0  0
   -7.5492   70.1671  -68.0850 H   0  0  0  0  0  0  0  0  0  0  0  0
  -10.7023   68.3278  -68.1126 H   0  0  0  0  0  0  0  0  0  0  0  0
  -10.8089   67.4475  -65.8932 H   0  0  0  0  0  0  0  0  0  0  0  0
   -8.4072   65.3215  -67.8772 H   0  0  0  0  0  0  0  0  0  0  0  0
  -11.6548   64.4782  -67.6413 H   0  0  0  0  0  0  0  0  0  0  0  0
   -7.1109   69.7892  -72.9312 H   0  0  0  0  0  0  0  0  0  0  0  0
  5  4  1  0
  1  5  1  6
  6  4  1  0
  7  6  1  0
  8  6  1  0
  8  9  1  0
 10  8  1  0
 10 11  1  0
 12  7  1  0
 12 10  1  0
 14  1  2  0
 15  2  2  0
 16  3  2  0
 17 13  1  0
 18 17  1  0
 19  1  1  0
  2 20  1  1
 21  3  1  0
 22 17  2  0
 23  3  1  0
 23  2  1  0
 24  2  1  0
 24  1  1  0
 25  3  1  0
 26 22  1  0
 27 26  2  0
 28 27  1  0
 28 13  1  0
 29 28  2  0
 30 27  1  0
 31 30  2  0
 32 31  1  0
 32 26  1  0
 12 32  1  0
  4 33  1  0
  4 34  1  0
  6 35  1  1
  8 36  1  1
  9 37  1  0
 10 38  1  1
 11 39  1  0
 12 40  1  6
 13 41  1  0
 18 42  1  0
 18 43  1  0
 19 44  1  0
 20 45  1  0
 21 46  1  0
 23 47  1  0
 25 48  1  0
 31 49  1  0
M  END
