
     RDKit          3D

 31 33  0  0  0  0  0  0  0  0999 V2000
   39.6094   11.6945   71.2349 C   0  0  0  0  0  0  0  0  0  0  0  0
   40.8256   11.8726   70.3400 C   0  0  1  0  0  0  0  0  0  0  0  0
   40.6455   11.0792   69.2019 O   0  0  0  0  0  0  0  0  0  0  0  0
   40.9991   13.3059   69.8469 C   0  0  1  0  0  0  0  0  0  0  0  0
   41.7907   14.0548   70.7333 O   0  0  0  0  0  0  0  0  0  0  0  0
   41.6668   13.0981   68.4946 C   0  0  1  0  0  0  0  0  0  0  0  0
   43.0065   13.5317   68.4742 O   0  0  0  0  0  0  0  0  0  0  0  0
   41.5638   11.5829   68.2751 C   0  0  2  0  0  0  0  0  0  0  0  0
   43.0048    9.6019   63.7787 N   0  0  0  0  0  0  0  0  0  0  0  0
   43.7059    9.6761   64.9555 C   0  0  0  0  0  0  0  0  0  0  0  0
   43.1325   10.2278   66.0636 N   0  0  0  0  0  0  0  0  0  0  0  0
   41.8637   10.6953   65.9621 C   0  0  0  0  0  0  0  0  0  0  0  0
   41.1477   10.6338   64.8194 C   0  0  0  0  0  0  0  0  0  0  0  0
   41.7238   10.0726   63.6802 C   0  0  0  0  0  0  0  0  0  0  0  0
   41.0187    9.9797   62.4479 N   0  0  0  0  0  0  0  0  0  0  0  0
   39.9197   11.1649   65.0074 N   0  0  0  0  0  0  0  0  0  0  0  0
   39.9454   11.5456   66.3156 C   0  0  0  0  0  0  0  0  0  0  0  0
   41.1302   11.2692   66.9191 N   0  0  0  0  0  0  0  0  0  0  0  0
   40.0288   11.6089   72.5386 F   0  0  0  0  0  0  0  0  0  0  0  0
   38.8724   12.5195   71.1390 H   0  0  0  0  0  0  0  0  0  0  0  0
   39.0824   10.7455   70.9950 H   0  0  0  0  0  0  0  0  0  0  0  0
   41.7419   11.5279   70.8784 H   0  0  0  0  0  0  0  0  0  0  0  0
   40.0110   13.8009   69.6919 H   0  0  0  0  0  0  0  0  0  0  0  0
   41.2806   14.8824   70.9341 H   0  0  0  0  0  0  0  0  0  0  0  0
   41.1042   13.6622   67.7183 H   0  0  0  0  0  0  0  0  0  0  0  0
   43.0158   14.5225   68.5463 H   0  0  0  0  0  0  0  0  0  0  0  0
   42.5465   11.0926   68.4693 H   0  0  0  0  0  0  0  0  0  0  0  0
   44.7167    9.2955   65.0051 H   0  0  0  0  0  0  0  0  0  0  0  0
   39.9840    9.8394   62.4306 H   0  0  0  0  0  0  0  0  0  0  0  0
   41.5326   10.0517   61.5419 H   0  0  0  0  0  0  0  0  0  0  0  0
   39.1145   12.0294   66.8127 H   0  0  0  0  0  0  0  0  0  0  0  0
  2  1  1  0
  3  2  1  0
  4  2  1  0
  4  5  1  0
  6  4  1  0
  6  7  1  0
  8  3  1  0
  8  6  1  0
 10  9  2  0
 11 10  1  0
 12 11  2  0
 13 12  1  0
 14 13  2  0
 14  9  1  0
 15 14  1  0
 16 13  1  0
 17 16  2  0
 18 12  1  0
 18 17  1  0
  8 18  1  0
 19  1  1  0
  1 20  1  0
  1 21  1  0
  2 22  1  1
  4 23  1  6
  5 24  1  0
  6 25  1  6
  7 26  1  0
  8 27  1  1
 10 28  1  0
 15 29  1  0
 15 30  1  0
 17 31  1  0
M  END
