
     RDKit          3D

 31 33  0  0  0  0  0  0  0  0999 V2000
   16.1922   32.3008   66.3967 C   0  0  0  0  0  0  0  0  0  0  0  0
   15.9093   31.3386   65.2507 C   0  0  1  0  0  0  0  0  0  0  0  0
   15.5264   32.0644   64.1128 O   0  0  0  0  0  0  0  0  0  0  0  0
   17.1317   30.5073   64.8498 C   0  0  1  0  0  0  0  0  0  0  0  0
   17.2469   29.3047   65.5744 O   0  0  0  0  0  0  0  0  0  0  0  0
   16.9056   30.2829   63.3639 C   0  0  1  0  0  0  0  0  0  0  0  0
   16.6790   28.9316   63.0453 O   0  0  0  0  0  0  0  0  0  0  0  0
   15.6831   31.1583   63.0507 C   0  0  2  0  0  0  0  0  0  0  0  0
   14.5770   31.2767   58.0368 N   0  0  0  0  0  0  0  0  0  0  0  0
   14.1068   30.4226   59.0014 C   0  0  0  0  0  0  0  0  0  0  0  0
   14.5052   30.5606   60.2993 N   0  0  0  0  0  0  0  0  0  0  0  0
   15.3671   31.5619   60.5977 C   0  0  0  0  0  0  0  0  0  0  0  0
   15.8446   32.4177   59.6685 C   0  0  0  0  0  0  0  0  0  0  0  0
   15.4483   32.2853   58.3423 C   0  0  0  0  0  0  0  0  0  0  0  0
   15.9219   33.1624   57.3275 N   0  0  0  0  0  0  0  0  0  0  0  0
   16.6750   33.3126   60.2388 N   0  0  0  0  0  0  0  0  0  0  0  0
   16.6679   32.9457   61.5499 C   0  0  0  0  0  0  0  0  0  0  0  0
   15.8721   31.8746   61.7948 N   0  0  0  0  0  0  0  0  0  0  0  0
   15.7408   31.7346   67.5677 F   0  0  0  0  0  0  0  0  0  0  0  0
   17.2686   32.5564   66.4924 H   0  0  0  0  0  0  0  0  0  0  0  0
   15.6308   33.2480   66.2470 H   0  0  0  0  0  0  0  0  0  0  0  0
   15.0521   30.6845   65.5402 H   0  0  0  0  0  0  0  0  0  0  0  0
   18.0702   31.0911   64.9783 H   0  0  0  0  0  0  0  0  0  0  0  0
   17.1411   28.5380   64.9540 H   0  0  0  0  0  0  0  0  0  0  0  0
   17.8054   30.6233   62.8054 H   0  0  0  0  0  0  0  0  0  0  0  0
   16.3982   28.4505   63.8669 H   0  0  0  0  0  0  0  0  0  0  0  0
   14.7550   30.5438   62.9859 H   0  0  0  0  0  0  0  0  0  0  0  0
   13.4188   29.6334   58.7315 H   0  0  0  0  0  0  0  0  0  0  0  0
   16.9445   33.2747   57.1477 H   0  0  0  0  0  0  0  0  0  0  0  0
   15.2460   33.7071   56.7473 H   0  0  0  0  0  0  0  0  0  0  0  0
   17.2483   33.4505   62.3115 H   0  0  0  0  0  0  0  0  0  0  0  0
  2  1  1  0
  3  2  1  0
  4  2  1  0
  4  5  1  0
  6  4  1  0
  6  7  1  0
  8  3  1  0
  8  6  1  0
 10  9  2  0
 11 10  1  0
 12 11  2  0
 13 12  1  0
 14 13  2  0
 14  9  1  0
 15 14  1  0
 16 13  1  0
 17 16  2  0
 18 12  1  0
  8 18  1  0
 18 17  1  0
 19  1  1  0
  1 20  1  0
  1 21  1  0
  2 22  1  1
  4 23  1  6
  5 24  1  0
  6 25  1  6
  7 26  1  0
  8 27  1  6
 10 28  1  0
 15 29  1  0
 15 30  1  0
 17 31  1  0
M  END
