
     RDKit          3D

 31 33  0  0  0  0  0  0  0  0999 V2000
   45.7603   42.6699   71.1147 C   0  0  0  0  0  0  0  0  0  0  0  0
   45.3132   43.4987   69.9147 C   0  0  1  0  0  0  0  0  0  0  0  0
   46.4178   43.7669   69.0915 O   0  0  0  0  0  0  0  0  0  0  0  0
   44.2845   42.7768   69.0483 C   0  0  1  0  0  0  0  0  0  0  0  0
   42.9718   43.0478   69.4727 O   0  0  0  0  0  0  0  0  0  0  0  0
   44.5712   43.3503   67.6698 C   0  0  1  0  0  0  0  0  0  0  0  0
   43.5164   44.1427   67.1811 O   0  0  0  0  0  0  0  0  0  0  0  0
   45.8478   44.1775   67.8802 C   0  0  2  0  0  0  0  0  0  0  0  0
   48.1910   46.4244   63.9174 N   0  0  0  0  0  0  0  0  0  0  0  0
   47.3682   46.9844   64.8620 C   0  0  0  0  0  0  0  0  0  0  0  0
   46.8551   46.2184   65.8674 N   0  0  0  0  0  0  0  0  0  0  0  0
   47.1834   44.9026   65.8978 C   0  0  0  0  0  0  0  0  0  0  0  0
   47.9932   44.3252   64.9852 C   0  0  0  0  0  0  0  0  0  0  0  0
   48.5184   45.0958   63.9531 C   0  0  0  0  0  0  0  0  0  0  0  0
   49.3652   44.5353   62.9579 N   0  0  0  0  0  0  0  0  0  0  0  0
   48.1481   43.0117   65.2559 N   0  0  0  0  0  0  0  0  0  0  0  0
   47.3939   42.8401   66.3762 C   0  0  0  0  0  0  0  0  0  0  0  0
   46.7899   43.9854   66.7848 N   0  0  0  0  0  0  0  0  0  0  0  0
   45.5140   43.3930   72.2599 F   0  0  0  0  0  0  0  0  0  0  0  0
   45.2348   41.6943   71.1887 H   0  0  0  0  0  0  0  0  0  0  0  0
   46.8514   42.4637   71.0682 H   0  0  0  0  0  0  0  0  0  0  0  0
   44.8924   44.4702   70.2732 H   0  0  0  0  0  0  0  0  0  0  0  0
   44.4651   41.6760   69.0187 H   0  0  0  0  0  0  0  0  0  0  0  0
   42.3744   42.4986   68.9011 H   0  0  0  0  0  0  0  0  0  0  0  0
   44.7399   42.5151   66.9549 H   0  0  0  0  0  0  0  0  0  0  0  0
   42.6580   43.6927   67.3995 H   0  0  0  0  0  0  0  0  0  0  0  0
   45.6030   45.2623   67.9674 H   0  0  0  0  0  0  0  0  0  0  0  0
   47.1259   48.0369   64.8094 H   0  0  0  0  0  0  0  0  0  0  0  0
   50.2526   44.0499   63.2178 H   0  0  0  0  0  0  0  0  0  0  0  0
   49.1060   44.6041   61.9489 H   0  0  0  0  0  0  0  0  0  0  0  0
   47.2758   41.8863   66.8741 H   0  0  0  0  0  0  0  0  0  0  0  0
  2  1  1  0
  3  2  1  0
  4  2  1  0
  4  5  1  0
  6  4  1  0
  6  7  1  0
  8  6  1  0
  8  3  1  0
 10  9  2  0
 11 10  1  0
 12 11  2  0
 13 12  1  0
 14 13  2  0
 14  9  1  0
 15 14  1  0
 16 13  1  0
 17 16  2  0
 18 17  1  0
 18 12  1  0
  8 18  1  0
 19  1  1  0
  1 20  1  0
  1 21  1  0
  2 22  1  1
  4 23  1  6
  5 24  1  0
  6 25  1  6
  7 26  1  0
  8 27  1  1
 10 28  1  0
 15 29  1  0
 15 30  1  0
 17 31  1  0
M  END
