
     RDKit          3D

 68 72  0  0  0  0  0  0  0  0999 V2000
   33.6636   24.5985   46.9411 C   0  0  0  0  0  0  0  0  0  0  0  0
   33.3165   23.3123   47.3476 C   0  0  0  0  0  0  0  0  0  0  0  0
   32.1335   22.7701   46.9643 N   0  0  0  0  0  0  0  0  0  0  0  0
   31.2604   23.4506   46.1827 C   0  0  0  0  0  0  0  0  0  0  0  0
   31.5675   24.7544   45.7424 C   0  0  0  0  0  0  0  0  0  0  0  0
   32.7884   25.3217   46.1400 C   0  0  0  0  0  0  0  0  0  0  0  0
   30.6118   25.4802   44.8845 C   0  0  0  0  0  0  0  0  0  0  0  0
   29.4237   24.8923   44.6338 N   0  0  0  0  0  0  0  0  0  0  0  0
   28.4963   25.4682   43.8524 C   0  0  0  0  0  0  0  0  0  0  0  0
   28.7333   26.6818   43.2841 N   0  0  0  0  0  0  0  0  0  0  0  0
   29.9094   27.3206   43.5008 C   0  0  0  0  0  0  0  0  0  0  0  0
   30.8808   26.7343   44.3088 C   0  0  0  0  0  0  0  0  0  0  0  0
   27.2780   24.7813   43.6616 N   0  0  0  0  0  0  0  0  0  0  0  0
   26.1889   25.4059   43.0261 C   0  0  0  0  0  0  0  0  0  0  0  0
   26.1325   25.3917   41.6450 C   0  0  0  0  0  0  0  0  0  0  0  0
   25.0364   25.9639   40.9872 C   0  0  0  0  0  0  0  0  0  0  0  0
   24.0023   26.5253   41.7418 C   0  0  0  0  0  0  0  0  0  0  0  0
   24.0602   26.5251   43.1299 C   0  0  0  0  0  0  0  0  0  0  0  0
   25.1598   25.9697   43.7854 C   0  0  0  0  0  0  0  0  0  0  0  0
   25.2226   25.9603   45.2852 C   0  0  0  0  0  0  0  0  0  0  0  0
   24.8626   25.9047   39.5776 N   0  0  0  0  0  0  0  0  0  0  0  0
   25.2883   24.8531   38.7156 C   0  0  0  0  0  0  0  0  0  0  0  0
   25.0549   24.9651   37.2798 C   0  0  0  0  0  0  0  0  0  0  0  0
   23.9005   24.3974   36.7282 C   0  0  0  0  0  0  0  0  0  0  0  0
   23.6565   24.5059   35.3670 C   0  0  0  0  0  0  0  0  0  0  0  0
   24.5569   25.1910   34.5444 C   0  0  0  0  0  0  0  0  0  0  0  0
   25.7085   25.7692   35.0928 C   0  0  0  0  0  0  0  0  0  0  0  0
   25.9690   25.6373   36.4479 C   0  0  0  0  0  0  0  0  0  0  0  0
   25.8296   23.8139   39.1677 O   0  0  0  0  0  0  0  0  0  0  0  0
   24.2927   25.2847   33.0738 C   0  0  0  0  0  0  0  0  0  0  0  0
   24.0668   26.6805   32.6723 N   0  0  0  0  0  0  0  0  0  0  0  0
   25.2790   27.4802   32.9275 C   0  0  0  0  0  0  0  0  0  0  0  0
   25.0651   28.9159   32.4506 C   0  0  0  0  0  0  0  0  0  0  0  0
   23.8691   29.4707   33.1081 N   0  0  0  0  0  0  0  0  0  0  0  0
   22.6683   28.6822   32.7914 C   0  0  0  0  0  0  0  0  0  0  0  0
   22.8754   27.2684   33.3231 C   0  0  0  0  0  0  0  0  0  0  0  0
   23.6820   30.8878   32.7882 C   0  0  0  0  0  0  0  0  0  0  0  0
   34.6057   25.0320   47.2514 H   0  0  0  0  0  0  0  0  0  0  0  0
   33.9907   22.7420   47.9726 H   0  0  0  0  0  0  0  0  0  0  0  0
   30.3345   22.9642   45.9060 H   0  0  0  0  0  0  0  0  0  0  0  0
   33.0858   26.3193   45.8603 H   0  0  0  0  0  0  0  0  0  0  0  0
   30.0913   28.2833   43.0418 H   0  0  0  0  0  0  0  0  0  0  0  0
   31.8113   27.2613   44.4460 H   0  0  0  0  0  0  0  0  0  0  0  0
   27.1103   23.8853   44.1732 H   0  0  0  0  0  0  0  0  0  0  0  0
   26.9207   24.8585   41.1502 H   0  0  0  0  0  0  0  0  0  0  0  0
   23.1364   26.9572   41.2547 H   0  0  0  0  0  0  0  0  0  0  0  0
   23.2435   26.9604   43.6926 H   0  0  0  0  0  0  0  0  0  0  0  0
   26.1729   26.4221   45.6270 H   0  0  0  0  0  0  0  0  0  0  0  0
   24.3822   26.5327   45.7326 H   0  0  0  0  0  0  0  0  0  0  0  0
   25.1707   24.9147   45.6546 H   0  0  0  0  0  0  0  0  0  0  0  0
   24.2458   26.6469   39.1823 H   0  0  0  0  0  0  0  0  0  0  0  0
   23.1805   23.8749   37.3464 H   0  0  0  0  0  0  0  0  0  0  0  0
   22.7611   24.0571   34.9546 H   0  0  0  0  0  0  0  0  0  0  0  0
   26.4181   26.2906   34.4617 H   0  0  0  0  0  0  0  0  0  0  0  0
   26.9103   26.0232   36.8099 H   0  0  0  0  0  0  0  0  0  0  0  0
   23.3857   24.6749   32.8654 H   0  0  0  0  0  0  0  0  0  0  0  0
   25.1316   24.8483   32.4841 H   0  0  0  0  0  0  0  0  0  0  0  0
   25.5252   27.4835   34.0141 H   0  0  0  0  0  0  0  0  0  0  0  0
   26.1433   27.0554   32.3705 H   0  0  0  0  0  0  0  0  0  0  0  0
   24.9490   28.9323   31.3429 H   0  0  0  0  0  0  0  0  0  0  0  0
   25.9629   29.5143   32.7208 H   0  0  0  0  0  0  0  0  0  0  0  0
   22.4844   28.6577   31.6929 H   0  0  0  0  0  0  0  0  0  0  0  0
   21.7771   29.1198   33.2933 H   0  0  0  0  0  0  0  0  0  0  0  0
   23.0017   27.2924   34.4295 H   0  0  0  0  0  0  0  0  0  0  0  0
   21.9640   26.6792   33.0853 H   0  0  0  0  0  0  0  0  0  0  0  0
   24.6282   31.4463   32.9540 H   0  0  0  0  0  0  0  0  0  0  0  0
   23.4112   31.0060   31.7171 H   0  0  0  0  0  0  0  0  0  0  0  0
   22.8802   31.3339   33.4175 H   0  0  0  0  0  0  0  0  0  0  0  0
  2  1  2  0
  3  2  1  0
  4  3  2  0
  5  4  1  0
  6  5  2  0
  6  1  1  0
  7  5  1  0
  8  7  2  0
  9  8  1  0
 10  9  2  0
 11 10  1  0
 12  7  1  0
 12 11  2  0
 13  9  1  0
 14 13  1  0
 15 14  2  0
 16 15  1  0
 17 16  2  0
 18 17  1  0
 19 14  1  0
 19 18  2  0
 20 19  1  0
 21 16  1  0
 22 21  1  0
 23 22  1  0
 24 23  2  0
 25 24  1  0
 26 25  2  0
 27 26  1  0
 28 27  2  0
 28 23  1  0
 29 22  2  0
 30 26  1  0
 31 30  1  0
 32 31  1  0
 33 32  1  0
 34 33  1  0
 35 34  1  0
 36 31  1  0
 36 35  1  0
 37 34  1  0
  1 38  1  0
  2 39  1  0
  4 40  1  0
  6 41  1  0
 11 42  1  0
 12 43  1  0
 13 44  1  0
 15 45  1  0
 17 46  1  0
 18 47  1  0
 20 48  1  0
 20 49  1  0
 20 50  1  0
 21 51  1  0
 24 52  1  0
 25 53  1  0
 27 54  1  0
 28 55  1  0
 30 56  1  0
 30 57  1  0
 32 58  1  0
 32 59  1  0
 33 60  1  0
 33 61  1  0
 35 62  1  0
 35 63  1  0
 36 64  1  0
 36 65  1  0
 37 66  1  0
 37 67  1  0
 37 68  1  0
M  END
