
     RDKit          3D

 79 83  0  0  0  0  0  0  0  0999 V2000
   15.4325   34.0578   16.5903 C   0  0  0  0  0  0  0  0  0  0  0  0
   16.4079   34.6992   15.9000 C   0  0  0  0  0  0  0  0  0  0  0  0
   17.2097   34.0431   14.9842 C   0  0  0  0  0  0  0  0  0  0  0  0
   16.9856   32.6708   14.7907 C   0  0  0  0  0  0  0  0  0  0  0  0
   15.9753   31.9963   15.5087 C   0  0  0  0  0  0  0  0  0  0  0  0
   15.1778   32.7003   16.4228 C   0  0  0  0  0  0  0  0  0  0  0  0
   17.9789   31.7998   13.6800 S   0  0  0  0  0  0  0  0  0  0  0  0
   17.1704   30.7179   13.0421 O   0  0  0  0  0  0  0  0  0  0  0  0
   18.4845   32.7250   12.6186 O   0  0  0  0  0  0  0  0  0  0  0  0
   19.3342   31.1202   14.4959 N   0  0  0  0  0  0  0  0  0  0  0  0
   20.0312   32.1295   15.3091 C   0  0  0  0  0  0  0  0  0  0  0  0
   21.5375   31.8340   15.3268 C   0  0  0  0  0  0  0  0  0  0  0  0
   22.3045   32.8121   14.4195 C   0  0  0  0  0  0  0  0  0  0  0  0
   22.0727   31.9014   16.7574 C   0  0  0  0  0  0  0  0  0  0  0  0
   18.9937   29.8851   15.2239 C   0  0  0  0  0  0  0  0  0  0  0  0
   19.8588   28.7540   14.6638 C   0  0  1  0  0  0  0  0  0  0  0  0
   15.4424   36.2302   17.2715 C   0  0  0  0  0  0  0  0  0  0  0  0
   19.7627   27.6115   15.4743 O   0  0  0  0  0  0  0  0  0  0  0  0
   19.5171   28.4164   13.1984 C   0  0  1  0  0  0  0  0  0  0  0  0
   14.8075   34.9529   17.4317 O   0  0  0  0  0  0  0  0  0  0  0  0
   20.6093   27.6186   12.6692 N   0  0  0  0  0  0  0  0  0  0  0  0
   21.4131   28.0159   11.5618 C   0  0  0  0  0  0  0  0  0  0  0  0
   21.2932   29.1623   11.0505 O   0  0  0  0  0  0  0  0  0  0  0  0
   22.3169   25.6031    9.1993 N   0  0  0  0  0  0  0  0  0  0  0  0
   22.4767   27.0105    9.5049 C   0  0  0  0  0  0  0  0  0  0  0  0
   22.1373   24.8997   10.3930 C   0  0  0  0  0  0  0  0  0  0  0  0
   22.0263   23.6489   10.4624 O   0  0  0  0  0  0  0  0  0  0  0  0
   22.1501   25.7341   11.4775 O   0  0  0  0  0  0  0  0  0  0  0  0
   22.4436   27.0685   11.0510 C   0  0  2  0  0  0  0  0  0  0  0  0
   16.4443   36.0271   16.2672 O   0  0  0  0  0  0  0  0  0  0  0  0
   18.1982   27.6363   13.0367 C   0  0  0  0  0  0  0  0  0  0  0  0
   18.3683   26.0051   11.1215 C   0  0  0  0  0  0  0  0  0  0  0  0
   18.2305   25.6837    9.7703 C   0  0  0  0  0  0  0  0  0  0  0  0
   17.7149   26.6251    8.8775 C   0  0  0  0  0  0  0  0  0  0  0  0
   17.3463   27.8928    9.3331 C   0  0  0  0  0  0  0  0  0  0  0  0
   17.4839   28.2186   10.6837 C   0  0  0  0  0  0  0  0  0  0  0  0
   17.9836   27.2715   11.5910 C   0  0  0  0  0  0  0  0  0  0  0  0
   23.1431   23.8343    5.4881 C   0  0  0  0  0  0  0  0  0  0  0  0
   24.1510   23.9165    6.4546 C   0  0  0  0  0  0  0  0  0  0  0  0
   23.8869   24.5038    7.6930 C   0  0  0  0  0  0  0  0  0  0  0  0
   22.6058   25.0075    7.9526 C   0  0  0  0  0  0  0  0  0  0  0  0
   21.5975   24.9227    6.9918 C   0  0  0  0  0  0  0  0  0  0  0  0
   21.8659   24.3343    5.7584 C   0  0  0  0  0  0  0  0  0  0  0  0
   24.9022   24.5817    8.6462 O   0  0  0  0  0  0  0  0  0  0  0  0
   17.9786   34.5820   14.4463 H   0  0  0  0  0  0  0  0  0  0  0  0
   15.8052   30.9375   15.3628 H   0  0  0  0  0  0  0  0  0  0  0  0
   14.3978   32.2041   16.9850 H   0  0  0  0  0  0  0  0  0  0  0  0
   19.9058   33.1448   14.8727 H   0  0  0  0  0  0  0  0  0  0  0  0
   19.6187   32.1725   16.3423 H   0  0  0  0  0  0  0  0  0  0  0  0
   21.7114   30.7979   14.9696 H   0  0  0  0  0  0  0  0  0  0  0  0
   22.4976   32.3435   13.4311 H   0  0  0  0  0  0  0  0  0  0  0  0
   23.2771   33.0912   14.8786 H   0  0  0  0  0  0  0  0  0  0  0  0
   21.7149   33.7358   14.2443 H   0  0  0  0  0  0  0  0  0  0  0  0
   21.5429   32.6862   17.3395 H   0  0  0  0  0  0  0  0  0  0  0  0
   23.1590   32.1345   16.7497 H   0  0  0  0  0  0  0  0  0  0  0  0
   21.9345   30.9231   17.2657 H   0  0  0  0  0  0  0  0  0  0  0  0
   19.2047   29.9816   16.3123 H   0  0  0  0  0  0  0  0  0  0  0  0
   17.9191   29.6185   15.1552 H   0  0  0  0  0  0  0  0  0  0  0  0
   20.9186   29.0926   14.6717 H   0  0  0  0  0  0  0  0  0  0  0  0
   14.7040   36.9853   16.9295 H   0  0  0  0  0  0  0  0  0  0  0  0
   15.9156   36.5442   18.2255 H   0  0  0  0  0  0  0  0  0  0  0  0
   20.0310   27.8807   16.3918 H   0  0  0  0  0  0  0  0  0  0  0  0
   19.4326   29.3608   12.6198 H   0  0  0  0  0  0  0  0  0  0  0  0
   20.8036   26.7119   13.1516 H   0  0  0  0  0  0  0  0  0  0  0  0
   21.6496   27.5820    9.0292 H   0  0  0  0  0  0  0  0  0  0  0  0
   23.4539   27.3783    9.1228 H   0  0  0  0  0  0  0  0  0  0  0  0
   23.4406   27.3638   11.4439 H   0  0  0  0  0  0  0  0  0  0  0  0
   17.3362   28.2339   13.3937 H   0  0  0  0  0  0  0  0  0  0  0  0
   18.2204   26.7126   13.6555 H   0  0  0  0  0  0  0  0  0  0  0  0
   18.7854   25.2704   11.7992 H   0  0  0  0  0  0  0  0  0  0  0  0
   18.5317   24.7073    9.4130 H   0  0  0  0  0  0  0  0  0  0  0  0
   17.6120   26.3758    7.8293 H   0  0  0  0  0  0  0  0  0  0  0  0
   16.9575   28.6250    8.6372 H   0  0  0  0  0  0  0  0  0  0  0  0
   17.2046   29.2076   11.0158 H   0  0  0  0  0  0  0  0  0  0  0  0
   23.3518   23.3789    4.5287 H   0  0  0  0  0  0  0  0  0  0  0  0
   25.1367   23.5246    6.2385 H   0  0  0  0  0  0  0  0  0  0  0  0
   20.6080   25.3109    7.2006 H   0  0  0  0  0  0  0  0  0  0  0  0
   21.0874   24.2663    5.0095 H   0  0  0  0  0  0  0  0  0  0  0  0
   24.7774   25.0209    9.5495 H   0  0  0  0  0  0  0  0  0  0  0  0
  2  1  1  0
  3  2  2  0
  4  3  1  0
  5  4  2  0
  6  5  1  0
  6  1  2  0
  7  4  1  0
  8  7  2  0
  9  7  2  0
  7 10  1  0
 11 10  1  0
 12 11  1  0
 12 13  1  0
 14 12  1  0
 15 10  1  0
 16 15  1  0
 16 18  1  0
 19 16  1  0
 20 17  1  0
 20  1  1  0
 21 19  1  0
 22 21  1  0
 23 22  2  0
 25 24  1  0
 26 24  1  0
 27 26  2  0
 28 26  1  0
 29 22  1  0
 29 28  1  0
 29 25  1  0
 30 17  1  0
 30  2  1  0
 19 31  1  0
 33 32  2  0
 34 33  1  0
 35 34  2  0
 36 35  1  0
 37 32  1  0
 37 36  2  0
 37 31  1  0
 39 38  2  0
 40 39  1  0
 41 40  2  0
 41 24  1  0
 42 41  1  0
 43 42  2  0
 43 38  1  0
 44 40  1  0
  3 45  1  0
  5 46  1  0
  6 47  1  0
 11 48  1  0
 11 49  1  0
 12 50  1  0
 13 51  1  0
 13 52  1  0
 13 53  1  0
 14 54  1  0
 14 55  1  0
 14 56  1  0
 15 57  1  0
 15 58  1  0
 16 59  1  6
 17 60  1  0
 17 61  1  0
 18 62  1  0
 19 63  1  6
 21 64  1  0
 25 65  1  0
 25 66  1  0
 29 67  1  1
 31 68  1  0
 31 69  1  0
 32 70  1  0
 33 71  1  0
 34 72  1  0
 35 73  1  0
 36 74  1  0
 38 75  1  0
 39 76  1  0
 42 77  1  0
 43 78  1  0
 44 79  1  0
M  END
