
     RDKit          3D

 79 83  0  0  0  0  0  0  0  0999 V2000
   15.5273   35.2426   18.1912 C   0  0  0  0  0  0  0  0  0  0  0  0
   16.4946   35.8941   17.4989 C   0  0  0  0  0  0  0  0  0  0  0  0
   17.2947   35.2484   16.5742 C   0  0  0  0  0  0  0  0  0  0  0  0
   17.0777   33.8759   16.3739 C   0  0  0  0  0  0  0  0  0  0  0  0
   16.0758   33.1910   17.0938 C   0  0  0  0  0  0  0  0  0  0  0  0
   15.2798   33.8846   18.0170 C   0  0  0  0  0  0  0  0  0  0  0  0
   18.0694   33.0176   15.2519 S   0  0  0  0  0  0  0  0  0  0  0  0
   17.3021   31.8590   14.7043 O   0  0  0  0  0  0  0  0  0  0  0  0
   18.4616   33.9220   14.1265 O   0  0  0  0  0  0  0  0  0  0  0  0
   19.5042   32.4625   16.0250 N   0  0  0  0  0  0  0  0  0  0  0  0
   20.1737   33.5501   16.7563 C   0  0  0  0  0  0  0  0  0  0  0  0
   21.6950   33.3502   16.7086 C   0  0  0  0  0  0  0  0  0  0  0  0
   22.1576   32.3593   17.7912 C   0  0  0  0  0  0  0  0  0  0  0  0
   22.1211   32.8643   15.3229 C   0  0  0  0  0  0  0  0  0  0  0  0
   19.2803   31.2439   16.8226 C   0  0  0  0  0  0  0  0  0  0  0  0
   20.1880   30.1441   16.2679 C   0  0  1  0  0  0  0  0  0  0  0  0
   15.5283   37.4109   18.8855 C   0  0  0  0  0  0  0  0  0  0  0  0
   20.2058   29.0367   17.1311 O   0  0  0  0  0  0  0  0  0  0  0  0
   19.7974   29.7179   14.8383 C   0  0  1  0  0  0  0  0  0  0  0  0
   14.9020   36.1288   19.0418 O   0  0  0  0  0  0  0  0  0  0  0  0
   20.9115   28.9658   14.2882 N   0  0  0  0  0  0  0  0  0  0  0  0
   21.6327   29.3604   13.1243 C   0  0  0  0  0  0  0  0  0  0  0  0
   21.4756   30.5055   12.6202 O   0  0  0  0  0  0  0  0  0  0  0  0
   22.2827   26.7318   10.9134 N   0  0  0  0  0  0  0  0  0  0  0  0
   22.3933   28.1719   11.0311 C   0  0  0  0  0  0  0  0  0  0  0  0
   22.3618   26.1675   12.1890 C   0  0  0  0  0  0  0  0  0  0  0  0
   22.3528   24.9299   12.4123 O   0  0  0  0  0  0  0  0  0  0  0  0
   22.5029   27.1247   13.1568 O   0  0  0  0  0  0  0  0  0  0  0  0
   22.6237   28.4119   12.5424 C   0  0  2  0  0  0  0  0  0  0  0  0
   16.5252   37.2199   17.8739 O   0  0  0  0  0  0  0  0  0  0  0  0
   18.5252   28.8504   14.7793 C   0  0  0  0  0  0  0  0  0  0  0  0
   18.7061   27.1456   12.9305 C   0  0  0  0  0  0  0  0  0  0  0  0
   18.5232   26.7536   11.6035 C   0  0  0  0  0  0  0  0  0  0  0  0
   17.9047   27.6184   10.6986 C   0  0  0  0  0  0  0  0  0  0  0  0
   17.4777   28.8806   11.1173 C   0  0  0  0  0  0  0  0  0  0  0  0
   17.6602   29.2768   12.4435 C   0  0  0  0  0  0  0  0  0  0  0  0
   18.2640   28.4060   13.3639 C   0  0  0  0  0  0  0  0  0  0  0  0
   22.5785   24.5821    7.3252 C   0  0  0  0  0  0  0  0  0  0  0  0
   23.6841   24.6583    8.1788 C   0  0  0  0  0  0  0  0  0  0  0  0
   23.5966   25.3717    9.3754 C   0  0  0  0  0  0  0  0  0  0  0  0
   22.3932   26.0073    9.7071 C   0  0  0  0  0  0  0  0  0  0  0  0
   21.2876   25.9290    8.8594 C   0  0  0  0  0  0  0  0  0  0  0  0
   21.3797   25.2145    7.6676 C   0  0  0  0  0  0  0  0  0  0  0  0
   24.7078   25.4418   10.2154 O   0  0  0  0  0  0  0  0  0  0  0  0
   18.0570   35.7952   16.0350 H   0  0  0  0  0  0  0  0  0  0  0  0
   15.9113   32.1321   16.9426 H   0  0  0  0  0  0  0  0  0  0  0  0
   14.5062   33.3804   18.5809 H   0  0  0  0  0  0  0  0  0  0  0  0
   19.9617   34.5342   16.2833 H   0  0  0  0  0  0  0  0  0  0  0  0
   19.8104   33.6154   17.8067 H   0  0  0  0  0  0  0  0  0  0  0  0
   22.1976   34.3257   16.8732 H   0  0  0  0  0  0  0  0  0  0  0  0
   21.4141   32.3210   18.6156 H   0  0  0  0  0  0  0  0  0  0  0  0
   23.1397   32.6673   18.2099 H   0  0  0  0  0  0  0  0  0  0  0  0
   22.2526   31.3344   17.3763 H   0  0  0  0  0  0  0  0  0  0  0  0
   23.0464   32.2520   15.3877 H   0  0  0  0  0  0  0  0  0  0  0  0
   22.3123   33.7312   14.6549 H   0  0  0  0  0  0  0  0  0  0  0  0
   21.3156   32.2497   14.8669 H   0  0  0  0  0  0  0  0  0  0  0  0
   19.5378   31.4040   17.8933 H   0  0  0  0  0  0  0  0  0  0  0  0
   18.2230   30.9080   16.8215 H   0  0  0  0  0  0  0  0  0  0  0  0
   21.2229   30.5480   16.2060 H   0  0  0  0  0  0  0  0  0  0  0  0
   14.7833   38.1636   18.5525 H   0  0  0  0  0  0  0  0  0  0  0  0
   16.0054   37.7220   19.8385 H   0  0  0  0  0  0  0  0  0  0  0  0
   20.1978   28.2227   16.5622 H   0  0  0  0  0  0  0  0  0  0  0  0
   19.6237   30.6272   14.2244 H   0  0  0  0  0  0  0  0  0  0  0  0
   21.1874   28.0965   14.7987 H   0  0  0  0  0  0  0  0  0  0  0  0
   21.4583   28.6405   10.6526 H   0  0  0  0  0  0  0  0  0  0  0  0
   23.2615   28.5401   10.4422 H   0  0  0  0  0  0  0  0  0  0  0  0
   23.6502   28.8014   12.7156 H   0  0  0  0  0  0  0  0  0  0  0  0
   17.6450   29.4092   15.1543 H   0  0  0  0  0  0  0  0  0  0  0  0
   18.6374   27.9598   15.4356 H   0  0  0  0  0  0  0  0  0  0  0  0
   19.2025   26.4706   13.6168 H   0  0  0  0  0  0  0  0  0  0  0  0
   18.8688   25.7823   11.2737 H   0  0  0  0  0  0  0  0  0  0  0  0
   17.7667   27.3146    9.6690 H   0  0  0  0  0  0  0  0  0  0  0  0
   17.0088   29.5539   10.4115 H   0  0  0  0  0  0  0  0  0  0  0  0
   17.3343   30.2609   12.7465 H   0  0  0  0  0  0  0  0  0  0  0  0
   22.6503   24.0285    6.3979 H   0  0  0  0  0  0  0  0  0  0  0  0
   24.6080   24.1635    7.9078 H   0  0  0  0  0  0  0  0  0  0  0  0
   20.3588   26.4198    9.1240 H   0  0  0  0  0  0  0  0  0  0  0  0
   20.5252   25.1510    7.0064 H   0  0  0  0  0  0  0  0  0  0  0  0
   25.3747   26.2026   10.1847 H   0  0  0  0  0  0  0  0  0  0  0  0
  2  1  1  0
  3  2  2  0
  4  3  1  0
  5  4  2  0
  6  5  1  0
  6  1  2  0
  7  4  1  0
  8  7  2  0
  9  7  2  0
  7 10  1  0
 11 10  1  0
 12 11  1  0
 12 13  1  0
 14 12  1  0
 15 10  1  0
 16 15  1  0
 16 18  1  0
 19 16  1  0
 20 17  1  0
 20  1  1  0
 21 19  1  0
 22 21  1  0
 23 22  2  0
 25 24  1  0
 26 24  1  0
 27 26  2  0
 28 26  1  0
 29 22  1  0
 29 28  1  0
 29 25  1  0
 30 17  1  0
 30  2  1  0
 19 31  1  0
 33 32  2  0
 34 33  1  0
 35 34  2  0
 36 35  1  0
 37 32  1  0
 37 36  2  0
 37 31  1  0
 39 38  2  0
 40 39  1  0
 41 40  2  0
 41 24  1  0
 42 41  1  0
 43 42  2  0
 43 38  1  0
 44 40  1  0
  3 45  1  0
  5 46  1  0
  6 47  1  0
 11 48  1  0
 11 49  1  0
 12 50  1  0
 13 51  1  0
 13 52  1  0
 13 53  1  0
 14 54  1  0
 14 55  1  0
 14 56  1  0
 15 57  1  0
 15 58  1  0
 16 59  1  6
 17 60  1  0
 17 61  1  0
 18 62  1  0
 19 63  1  6
 21 64  1  0
 25 65  1  0
 25 66  1  0
 29 67  1  6
 31 68  1  0
 31 69  1  0
 32 70  1  0
 33 71  1  0
 34 72  1  0
 35 73  1  0
 36 74  1  0
 38 75  1  0
 39 76  1  0
 42 77  1  0
 43 78  1  0
 44 79  1  0
M  END
