
     RDKit          3D

 60 62  0  0  0  0  0  0  0  0999 V2000
   61.9761  -12.0610   50.5281 P   0  0  1  0  0  0  0  0  0  0  0  0
   59.6346  -13.1114   51.6109 P   0  0  1  0  0  0  0  0  0  0  0  0
   55.9104  -10.3889   53.0146 C   0  0  0  0  0  0  0  0  0  0  0  0
   56.2578  -10.0230   51.7020 O   0  0  0  0  0  0  0  0  0  0  0  0
   56.8413  -11.4950   53.5272 C   0  0  1  0  0  0  0  0  0  0  0  0
   58.1717  -10.9864   53.5014 O   0  0  0  0  0  0  0  0  0  0  0  0
   56.4336  -11.9697   54.9528 C   0  0  1  0  0  0  0  0  0  0  0  0
   55.1852  -12.6195   54.8896 O   0  0  0  0  0  0  0  0  0  0  0  0
   57.4927  -12.9435   55.5208 C   0  0  2  0  0  0  0  0  0  0  0  0
   57.2348  -13.2501   56.8697 O   0  0  0  0  0  0  0  0  0  0  0  0
   58.8937  -12.3168   55.3713 C   0  0  1  0  0  0  0  0  0  0  0  0
   59.8752  -13.2217   55.8126 O   0  0  0  0  0  0  0  0  0  0  0  0
   59.1076  -11.9747   53.8857 C   0  0  1  0  0  0  0  0  0  0  0  0
   65.5844   -8.7263   51.5003 C   0  0  1  0  0  0  0  0  0  0  0  0
   66.6048   -9.6855   52.0062 N   0  0  0  0  0  0  0  0  0  0  0  0
   62.7300  -13.2787   50.0516 O   0  0  0  0  0  0  0  0  0  0  0  0
   58.8072  -12.3521   50.5921 O   0  0  0  0  0  0  0  0  0  0  0  0
   67.8167   -9.2500   52.4994 C   0  0  0  0  0  0  0  0  0  0  0  0
   65.1426   -9.0405   50.0699 C   0  0  2  0  0  0  0  0  0  0  0  0
   68.0957   -8.0227   52.5235 O   0  0  0  0  0  0  0  0  0  0  0  0
   61.0549  -11.3834   49.2931 O   0  0  0  0  0  0  0  0  0  0  0  0
   59.8013  -14.7254   51.2042 O   0  0  0  0  0  0  0  0  0  0  0  0
   65.9725   -8.4435   49.1114 O   0  0  0  0  0  0  0  0  0  0  0  0
   63.7251   -8.5043   50.0252 C   0  0  2  0  0  0  0  0  0  0  0  0
   68.7365  -10.1374   52.9724 N   0  0  0  0  0  0  0  0  0  0  0  0
   61.1320  -12.4358   51.9150 O   0  0  0  0  0  0  0  0  0  0  0  0
   58.9138  -13.1615   53.1334 O   0  0  0  0  0  0  0  0  0  0  0  0
   63.6848   -7.1817   49.5514 O   0  0  0  0  0  0  0  0  0  0  0  0
   68.4874  -11.4682   52.9811 C   0  0  0  0  0  0  0  0  0  0  0  0
   63.2880   -8.6004   51.5027 C   0  0  2  0  0  0  0  0  0  0  0  0
   69.3518  -12.2708   53.4273 O   0  0  0  0  0  0  0  0  0  0  0  0
   64.4372   -8.7486   52.3247 O   0  0  0  0  0  0  0  0  0  0  0  0
   67.2685  -11.9400   52.5076 C   0  0  0  0  0  0  0  0  0  0  0  0
   62.3969   -9.8296   51.6995 C   0  0  0  0  0  0  0  0  0  0  0  0
   63.0730  -10.9264   51.1160 O   0  0  0  0  0  0  0  0  0  0  0  0
   66.3301  -11.0266   52.0347 C   0  0  0  0  0  0  0  0  0  0  0  0
   54.8492  -10.7260   53.0466 H   0  0  0  0  0  0  0  0  0  0  0  0
   56.0013   -9.4945   53.6675 H   0  0  0  0  0  0  0  0  0  0  0  0
   55.4122   -9.9890   51.1830 H   0  0  0  0  0  0  0  0  0  0  0  0
   56.7258  -12.3463   52.8178 H   0  0  0  0  0  0  0  0  0  0  0  0
   56.3733  -11.0753   55.6187 H   0  0  0  0  0  0  0  0  0  0  0  0
   55.3663  -13.5751   54.6909 H   0  0  0  0  0  0  0  0  0  0  0  0
   57.4581  -13.8923   54.9332 H   0  0  0  0  0  0  0  0  0  0  0  0
   56.5056  -13.9238   56.8818 H   0  0  0  0  0  0  0  0  0  0  0  0
   58.9423  -11.3831   55.9807 H   0  0  0  0  0  0  0  0  0  0  0  0
   59.5192  -14.1331   55.6445 H   0  0  0  0  0  0  0  0  0  0  0  0
   60.1288  -11.5512   53.7990 H   0  0  0  0  0  0  0  0  0  0  0  0
   65.9747   -7.6841   51.5116 H   0  0  0  0  0  0  0  0  0  0  0  0
   65.1075  -10.1343   49.8744 H   0  0  0  0  0  0  0  0  0  0  0  0
   60.8124  -12.1429   48.7054 H   0  0  0  0  0  0  0  0  0  0  0  0
   59.6000  -15.2195   52.0385 H   0  0  0  0  0  0  0  0  0  0  0  0
   65.3724   -7.9907   48.4629 H   0  0  0  0  0  0  0  0  0  0  0  0
   63.1089   -9.1389   49.3438 H   0  0  0  0  0  0  0  0  0  0  0  0
   69.6511   -9.7849   53.3378 H   0  0  0  0  0  0  0  0  0  0  0  0
   62.7260   -6.9564   49.4268 H   0  0  0  0  0  0  0  0  0  0  0  0
   62.7298   -7.6907   51.8154 H   0  0  0  0  0  0  0  0  0  0  0  0
   67.0417  -12.9991   52.5193 H   0  0  0  0  0  0  0  0  0  0  0  0
   62.2406  -10.0164   52.7842 H   0  0  0  0  0  0  0  0  0  0  0  0
   61.4104   -9.6123   51.2260 H   0  0  0  0  0  0  0  0  0  0  0  0
   65.3787  -11.4109   51.7071 H   0  0  0  0  0  0  0  0  0  0  0  0
  4  3  1  0
  5  3  1  0
  6  5  1  0
  7  5  1  0
  7  8  1  0
  9  7  1  0
  9 10  1  0
 11  9  1  0
 11 12  1  0
 13 11  1  0
 13  6  1  0
 14 15  1  0
 16  1  2  0
 17  2  2  0
 18 15  1  0
 19 14  1  0
 20 18  2  0
  1 21  1  6
  2 22  1  6
 19 23  1  0
 24 19  1  0
 25 18  1  0
 26  2  1  0
 26  1  1  0
 13 27  1  0
 27  2  1  0
 24 28  1  0
 29 25  1  0
 30 24  1  0
 31 29  2  0
 32 30  1  0
 32 14  1  0
 33 29  1  0
 30 34  1  0
 35  1  1  0
 35 34  1  0
 36 33  2  0
 36 15  1  0
  3 37  1  0
  3 38  1  0
  4 39  1  0
  5 40  1  6
  7 41  1  1
  8 42  1  0
  9 43  1  6
 10 44  1  0
 11 45  1  1
 12 46  1  0
 13 47  1  1
 14 48  1  6
 19 49  1  6
 21 50  1  0
 22 51  1  0
 23 52  1  0
 24 53  1  6
 25 54  1  0
 28 55  1  0
 30 56  1  1
 33 57  1  0
 34 58  1  0
 34 59  1  0
 36 60  1  0
M  END
