
     RDKit          3D

 60 62  0  0  0  0  0  0  0  0999 V2000
   63.2926  -12.0014   51.5466 P   0  0  1  0  0  0  0  0  0  0  0  0
   60.9686  -13.0795   52.6397 P   0  0  1  0  0  0  0  0  0  0  0  0
   57.2341  -10.3986   54.0954 C   0  0  0  0  0  0  0  0  0  0  0  0
   57.5679  -10.0194   52.7830 O   0  0  0  0  0  0  0  0  0  0  0  0
   58.1779  -11.5012   54.5914 C   0  0  1  0  0  0  0  0  0  0  0  0
   59.5040  -10.9817   54.5591 O   0  0  0  0  0  0  0  0  0  0  0  0
   57.7857  -11.9906   56.0164 C   0  0  1  0  0  0  0  0  0  0  0  0
   56.5421  -12.6500   55.9580 O   0  0  0  0  0  0  0  0  0  0  0  0
   58.8571  -12.9604   56.5679 C   0  0  2  0  0  0  0  0  0  0  0  0
   58.6127  -13.2799   57.9163 O   0  0  0  0  0  0  0  0  0  0  0  0
   60.2518  -12.3212   56.4123 C   0  0  1  0  0  0  0  0  0  0  0  0
   61.2441  -13.2216   56.8382 O   0  0  0  0  0  0  0  0  0  0  0  0
   60.4508  -11.9653   54.9277 C   0  0  1  0  0  0  0  0  0  0  0  0
   66.8818   -8.6455   52.5167 C   0  0  1  0  0  0  0  0  0  0  0  0
   67.9139   -9.6004   53.0066 N   0  0  0  0  0  0  0  0  0  0  0  0
   64.0524  -13.2091   51.0542 O   0  0  0  0  0  0  0  0  0  0  0  0
   60.1268  -12.3187   51.6338 O   0  0  0  0  0  0  0  0  0  0  0  0
   67.6394  -10.9447   53.1452 C   0  0  0  0  0  0  0  0  0  0  0  0
   66.4309   -8.9518   51.0875 C   0  0  2  0  0  0  0  0  0  0  0  0
   66.4979  -11.3980   52.8693 O   0  0  0  0  0  0  0  0  0  0  0  0
   62.3561  -11.3214   50.3247 O   0  0  0  0  0  0  0  0  0  0  0  0
   61.1449  -14.6887   52.2185 O   0  0  0  0  0  0  0  0  0  0  0  0
   67.2482   -8.3404   50.1272 O   0  0  0  0  0  0  0  0  0  0  0  0
   65.0088   -8.4267   51.0585 C   0  0  2  0  0  0  0  0  0  0  0  0
   68.5971  -11.8107   53.5813 N   0  0  0  0  0  0  0  0  0  0  0  0
   62.4628  -12.3942   52.9372 O   0  0  0  0  0  0  0  0  0  0  0  0
   60.2605  -13.1476   54.1675 O   0  0  0  0  0  0  0  0  0  0  0  0
   64.9541   -7.1007   50.5957 O   0  0  0  0  0  0  0  0  0  0  0  0
   69.8455  -11.3819   53.8829 C   0  0  0  0  0  0  0  0  0  0  0  0
   64.5845   -8.5382   52.5387 C   0  0  2  0  0  0  0  0  0  0  0  0
   70.7171  -12.2018   54.2810 O   0  0  0  0  0  0  0  0  0  0  0  0
   65.7415   -8.6838   53.3501 O   0  0  0  0  0  0  0  0  0  0  0  0
   70.1613  -10.0360   53.7375 C   0  0  0  0  0  0  0  0  0  0  0  0
   63.7050   -9.7761   52.7326 C   0  0  0  0  0  0  0  0  0  0  0  0
   64.3851  -10.8627   52.1349 O   0  0  0  0  0  0  0  0  0  0  0  0
   69.1803   -9.1589   53.2825 C   0  0  0  0  0  0  0  0  0  0  0  0
   56.1759  -10.7446   54.1331 H   0  0  0  0  0  0  0  0  0  0  0  0
   57.3230   -9.5088   54.7547 H   0  0  0  0  0  0  0  0  0  0  0  0
   58.5090   -9.7040   52.8087 H   0  0  0  0  0  0  0  0  0  0  0  0
   58.0635  -12.3476   53.8761 H   0  0  0  0  0  0  0  0  0  0  0  0
   57.7235  -11.1022   56.6900 H   0  0  0  0  0  0  0  0  0  0  0  0
   56.7280  -13.5984   55.7310 H   0  0  0  0  0  0  0  0  0  0  0  0
   58.8254  -13.9046   55.9730 H   0  0  0  0  0  0  0  0  0  0  0  0
   57.8891  -13.9595   57.9288 H   0  0  0  0  0  0  0  0  0  0  0  0
   60.2979  -11.3920   57.0287 H   0  0  0  0  0  0  0  0  0  0  0  0
   61.4680  -12.9775   57.7742 H   0  0  0  0  0  0  0  0  0  0  0  0
   61.4679  -11.5329   54.8363 H   0  0  0  0  0  0  0  0  0  0  0  0
   67.2637   -7.6003   52.5333 H   0  0  0  0  0  0  0  0  0  0  0  0
   66.4030  -10.0442   50.8833 H   0  0  0  0  0  0  0  0  0  0  0  0
   62.9261  -10.6175   49.9238 H   0  0  0  0  0  0  0  0  0  0  0  0
   61.5138  -14.6717   51.2996 H   0  0  0  0  0  0  0  0  0  0  0  0
   68.1192   -8.8162   50.1553 H   0  0  0  0  0  0  0  0  0  0  0  0
   64.3922   -9.0607   50.3770 H   0  0  0  0  0  0  0  0  0  0  0  0
   68.3654  -12.8256   53.6831 H   0  0  0  0  0  0  0  0  0  0  0  0
   63.9924   -6.8822   50.4807 H   0  0  0  0  0  0  0  0  0  0  0  0
   64.0216   -7.6357   52.8632 H   0  0  0  0  0  0  0  0  0  0  0  0
   71.1578   -9.6734   53.9582 H   0  0  0  0  0  0  0  0  0  0  0  0
   63.5590   -9.9730   53.8170 H   0  0  0  0  0  0  0  0  0  0  0  0
   62.7129   -9.5631   52.2689 H   0  0  0  0  0  0  0  0  0  0  0  0
   69.4573   -8.1276   53.1421 H   0  0  0  0  0  0  0  0  0  0  0  0
  4  3  1  0
  5  3  1  0
  6  5  1  0
  7  5  1  0
  7  8  1  0
  9  7  1  0
  9 10  1  0
 11  9  1  0
 11 12  1  0
 13 11  1  0
 13  6  1  0
 14 15  1  0
 16  1  2  0
 17  2  2  0
 18 15  1  0
 19 14  1  0
 20 18  2  0
  1 21  1  6
  2 22  1  6
 19 23  1  0
 24 19  1  0
 25 18  1  0
 26  2  1  0
 26  1  1  0
 13 27  1  0
 27  2  1  0
 24 28  1  0
 29 25  1  0
 30 24  1  0
 31 29  2  0
 32 30  1  0
 32 14  1  0
 33 29  1  0
 30 34  1  0
 35  1  1  0
 35 34  1  0
 36 33  2  0
 36 15  1  0
  3 37  1  0
  3 38  1  0
  4 39  1  0
  5 40  1  6
  7 41  1  1
  8 42  1  0
  9 43  1  6
 10 44  1  0
 11 45  1  1
 12 46  1  0
 13 47  1  1
 14 48  1  6
 19 49  1  6
 21 50  1  0
 22 51  1  0
 23 52  1  0
 24 53  1  6
 25 54  1  0
 28 55  1  0
 30 56  1  1
 33 57  1  0
 34 58  1  0
 34 59  1  0
 36 60  1  0
M  END
