
     RDKit          3D

 60 62  0  0  0  0  0  0  0  0999 V2000
   96.6464    3.1454   59.0286 P   0  0  1  0  0  0  0  0  0  0  0  0
   98.5942    3.5156   60.9774 P   0  0  1  0  0  0  0  0  0  0  0  0
  102.0203    0.0747   61.8744 C   0  0  0  0  0  0  0  0  0  0  0  0
  102.0823    0.3335   60.4969 O   0  0  0  0  0  0  0  0  0  0  0  0
  100.9856    0.9965   62.5251 C   0  0  1  0  0  0  0  0  0  0  0  0
   99.7063    0.6497   62.0026 O   0  0  0  0  0  0  0  0  0  0  0  0
  101.0653    0.8878   64.0785 C   0  0  1  0  0  0  0  0  0  0  0  0
  102.2426    1.5142   64.5417 O   0  0  0  0  0  0  0  0  0  0  0  0
   99.8312    1.5135   64.7706 C   0  0  2  0  0  0  0  0  0  0  0  0
   99.7766    1.1449   66.1281 O   0  0  0  0  0  0  0  0  0  0  0  0
   98.5358    1.0904   64.0486 C   0  0  1  0  0  0  0  0  0  0  0  0
   97.4417    1.7732   64.6079 O   0  0  0  0  0  0  0  0  0  0  0  0
   98.6754    1.4460   62.5601 C   0  0  1  0  0  0  0  0  0  0  0  0
   93.2672   -0.1230   57.5641 C   0  0  1  0  0  0  0  0  0  0  0  0
   92.0880    0.5757   58.1352 N   0  0  0  0  0  0  0  0  0  0  0  0
   95.9036    4.4615   58.9263 O   0  0  0  0  0  0  0  0  0  0  0  0
   99.6957    3.2699   59.9649 O   0  0  0  0  0  0  0  0  0  0  0  0
   91.0697   -0.1271   58.7468 C   0  0  0  0  0  0  0  0  0  0  0  0
   94.0426    0.7308   56.5613 C   0  0  2  0  0  0  0  0  0  0  0  0
   91.0915   -1.3874   58.8030 O   0  0  0  0  0  0  0  0  0  0  0  0
   97.8895    3.0535   57.8993 O   0  0  0  0  0  0  0  0  0  0  0  0
   98.3423    5.1508   61.2300 O   0  0  0  0  0  0  0  0  0  0  0  0
   93.5252    0.5873   55.2662 O   0  0  0  0  0  0  0  0  0  0  0  0
   95.4388    0.1575   56.6701 C   0  0  2  0  0  0  0  0  0  0  0  0
   90.0195    0.5300   59.3105 N   0  0  0  0  0  0  0  0  0  0  0  0
   97.1049    2.8598   60.6060 O   0  0  0  0  0  0  0  0  0  0  0  0
   98.9813    2.8345   62.4726 O   0  0  0  0  0  0  0  0  0  0  0  0
   95.6189   -0.8670   55.7291 O   0  0  0  0  0  0  0  0  0  0  0  0
   89.9417    1.8827   59.2818 C   0  0  0  0  0  0  0  0  0  0  0  0
   95.4781   -0.3866   58.1149 C   0  0  2  0  0  0  0  0  0  0  0  0
   88.9557    2.4669   59.8029 O   0  0  0  0  0  0  0  0  0  0  0  0
   94.1494   -0.5230   58.5927 O   0  0  0  0  0  0  0  0  0  0  0  0
   90.9574    2.6217   58.6868 C   0  0  0  0  0  0  0  0  0  0  0  0
   96.2089    0.6200   59.0074 C   0  0  0  0  0  0  0  0  0  0  0  0
   95.5755    1.8691   58.7983 O   0  0  0  0  0  0  0  0  0  0  0  0
   92.0351    1.9450   58.1272 C   0  0  0  0  0  0  0  0  0  0  0  0
  103.0249    0.2219   62.3339 H   0  0  0  0  0  0  0  0  0  0  0  0
  101.7282   -0.9863   62.0277 H   0  0  0  0  0  0  0  0  0  0  0  0
  102.6213    1.1598   60.3844 H   0  0  0  0  0  0  0  0  0  0  0  0
  101.2450    2.0362   62.2202 H   0  0  0  0  0  0  0  0  0  0  0  0
  101.1038   -0.1882   64.3597 H   0  0  0  0  0  0  0  0  0  0  0  0
  102.5167    2.1909   63.8686 H   0  0  0  0  0  0  0  0  0  0  0  0
   99.9088    2.6255   64.7169 H   0  0  0  0  0  0  0  0  0  0  0  0
   98.9480    0.6116   66.2499 H   0  0  0  0  0  0  0  0  0  0  0  0
   98.3960   -0.0109   64.1618 H   0  0  0  0  0  0  0  0  0  0  0  0
   96.6240    1.2991   64.3039 H   0  0  0  0  0  0  0  0  0  0  0  0
   97.7164    1.1726   62.0752 H   0  0  0  0  0  0  0  0  0  0  0  0
   92.9554   -1.0517   57.0349 H   0  0  0  0  0  0  0  0  0  0  0  0
   94.0616    1.8084   56.8338 H   0  0  0  0  0  0  0  0  0  0  0  0
   97.9279    3.9519   57.4838 H   0  0  0  0  0  0  0  0  0  0  0  0
   99.2074    5.4892   61.5736 H   0  0  0  0  0  0  0  0  0  0  0  0
   92.6646    1.0822   55.2516 H   0  0  0  0  0  0  0  0  0  0  0  0
   96.1921    0.9589   56.4770 H   0  0  0  0  0  0  0  0  0  0  0  0
   89.2553   -0.0179   59.7689 H   0  0  0  0  0  0  0  0  0  0  0  0
   95.3657   -0.4870   54.8476 H   0  0  0  0  0  0  0  0  0  0  0  0
   95.9948   -1.3700   58.1650 H   0  0  0  0  0  0  0  0  0  0  0  0
   90.9201    3.7041   58.6674 H   0  0  0  0  0  0  0  0  0  0  0  0
   96.1119    0.3210   60.0735 H   0  0  0  0  0  0  0  0  0  0  0  0
   97.2880    0.6168   58.7253 H   0  0  0  0  0  0  0  0  0  0  0  0
   92.8242    2.5354   57.6970 H   0  0  0  0  0  0  0  0  0  0  0  0
  4  3  1  0
  5  3  1  0
  6  5  1  0
  7  5  1  0
  7  8  1  0
  9  7  1  0
  9 10  1  0
 11  9  1  0
 11 12  1  0
 13 11  1  0
 13  6  1  0
 14 15  1  0
 16  1  2  0
 17  2  2  0
 18 15  1  0
 19 14  1  0
 20 18  2  0
  1 21  1  6
  2 22  1  1
 19 23  1  0
 24 19  1  0
 25 18  1  0
 26  1  1  0
 26  2  1  0
 13 27  1  0
 27  2  1  0
 24 28  1  0
 29 25  1  0
 30 24  1  0
 31 29  2  0
 32 30  1  0
 32 14  1  0
 33 29  1  0
 30 34  1  0
 35 34  1  0
 35  1  1  0
 36 33  2  0
 36 15  1  0
  3 37  1  0
  3 38  1  0
  4 39  1  0
  5 40  1  1
  7 41  1  6
  8 42  1  0
  9 43  1  1
 10 44  1  0
 11 45  1  6
 12 46  1  0
 13 47  1  6
 14 48  1  6
 19 49  1  1
 21 50  1  0
 22 51  1  0
 23 52  1  0
 24 53  1  1
 25 54  1  0
 28 55  1  0
 30 56  1  6
 33 57  1  0
 34 58  1  0
 34 59  1  0
 36 60  1  0
M  END
