
     RDKit          3D

 42 42  0  0  0  0  0  0  0  0999 V2000
   -1.9417   31.6971   18.4012 P   0  0  0  0  0  0  0  0  0  0  0  0
    2.2176   26.6159   16.7837 P   0  0  0  0  0  0  0  0  0  0  0  0
    2.8496   31.9240   17.7293 C   0  0  0  0  0  0  0  0  0  0  0  0
   -0.2899   31.3215   18.1510 O   0  0  0  0  0  0  0  0  0  0  0  0
    1.7150   32.5753   18.0857 C   0  0  0  0  0  0  0  0  0  0  0  0
    0.4155   30.3434   20.7841 O   0  0  0  0  0  0  0  0  0  0  0  0
    0.6570   31.9708   18.9931 C   0  0  2  0  0  0  0  0  0  0  0  0
    2.6382   28.7092   19.7195 O   0  0  0  0  0  0  0  0  0  0  0  0
    1.3576   30.9307   19.9313 C   0  0  2  0  0  0  0  0  0  0  0  0
    3.4009   33.3609   15.9108 O   0  0  0  0  0  0  0  0  0  0  0  0
    2.1094   29.8618   19.0363 C   0  0  1  0  0  0  0  0  0  0  0  0
    5.1252   32.1647   16.8167 O   0  0  0  0  0  0  0  0  0  0  0  0
    3.2885   30.6350   18.4063 C   0  0  0  0  0  0  0  0  0  0  0  0
   -2.2188   33.1828   18.3379 O   0  0  0  0  0  0  0  0  0  0  0  0
    3.7930   32.5380   16.7802 C   0  0  0  0  0  0  0  0  0  0  0  0
   -2.4514   31.0806   19.8818 O   0  0  0  0  0  0  0  0  0  0  0  0
    2.1684   27.3341   19.4985 C   0  0  2  0  0  0  0  0  0  0  0  0
   -2.7622   30.9399   17.1342 O   0  0  0  0  0  0  0  0  0  0  0  0
    0.6327   27.1564   19.5685 C   0  0  0  0  0  0  0  0  0  0  0  0
    2.0932   26.0945   21.5990 O   0  0  0  0  0  0  0  0  0  0  0  0
    2.7801   26.6671   20.7193 C   0  0  0  0  0  0  0  0  0  0  0  0
    4.1401   26.7841   20.9294 O   0  0  0  0  0  0  0  0  0  0  0  0
    0.8188   27.1504   16.6011 O   0  0  0  0  0  0  0  0  0  0  0  0
    2.2852   25.0736   16.0904 O   0  0  0  0  0  0  0  0  0  0  0  0
    3.3235   27.5502   15.9355 O   0  0  0  0  0  0  0  0  0  0  0  0
    2.7893   26.5870   18.4105 O   0  0  0  0  0  0  0  0  0  0  0  0
    1.4743   33.5240   17.6207 H   0  0  0  0  0  0  0  0  0  0  0  0
    0.1391   31.0412   21.4342 H   0  0  0  0  0  0  0  0  0  0  0  0
    0.2000   32.7818   19.6038 H   0  0  0  0  0  0  0  0  0  0  0  0
    2.1095   31.4607   20.5651 H   0  0  0  0  0  0  0  0  0  0  0  0
    1.4469   29.5233   18.2111 H   0  0  0  0  0  0  0  0  0  0  0  0
    5.7939   32.5573   16.1648 H   0  0  0  0  0  0  0  0  0  0  0  0
    3.7783   29.9734   17.6586 H   0  0  0  0  0  0  0  0  0  0  0  0
    4.0408   30.8771   19.1887 H   0  0  0  0  0  0  0  0  0  0  0  0
   -2.2866   30.1061   19.8176 H   0  0  0  0  0  0  0  0  0  0  0  0
   -2.8703   30.0001   17.4278 H   0  0  0  0  0  0  0  0  0  0  0  0
    0.1092   28.1299   19.5850 H   0  0  0  0  0  0  0  0  0  0  0  0
    0.3395   26.6386   20.5070 H   0  0  0  0  0  0  0  0  0  0  0  0
    0.2696   26.5660   18.7000 H   0  0  0  0  0  0  0  0  0  0  0  0
    4.6356   27.6345   20.6886 H   0  0  0  0  0  0  0  0  0  0  0  0
    2.0043   25.2028   15.1493 H   0  0  0  0  0  0  0  0  0  0  0  0
    2.8866   28.4328   15.8305 H   0  0  0  0  0  0  0  0  0  0  0  0
  4  1  1  0
  5  3  2  0
  7  5  1  0
  7  4  1  0
  9  7  1  0
  9  6  1  0
 11  9  1  0
 11  8  1  0
 13 11  1  0
 13  3  1  0
 14  1  2  0
 15  3  1  0
 15 10  2  0
 15 12  1  0
 16  1  1  0
 17  8  1  6
 18  1  1  0
 17 19  1  0
 21 20  2  0
 21 17  1  0
 22 21  1  0
 23  2  2  0
 24  2  1  0
 25  2  1  0
 26 17  1  0
 26  2  1  0
  5 27  1  0
  6 28  1  0
  7 29  1  1
  9 30  1  1
 11 31  1  6
 12 32  1  0
 13 33  1  0
 13 34  1  0
 16 35  1  0
 18 36  1  0
 19 37  1  0
 19 38  1  0
 19 39  1  0
 22 40  1  0
 24 41  1  0
 25 42  1  0
M  END
