
     RDKit          3D

 42 42  0  0  0  0  0  0  0  0999 V2000
   -2.1351   31.0106   17.8388 P   0  0  0  0  0  0  0  0  0  0  0  0
    2.5527   26.8892   17.2174 P   0  0  0  0  0  0  0  0  0  0  0  0
    2.5917   31.8456   18.4862 C   0  0  0  0  0  0  0  0  0  0  0  0
   -0.4391   30.8518   18.0134 O   0  0  0  0  0  0  0  0  0  0  0  0
    1.3261   32.3248   18.5703 C   0  0  0  0  0  0  0  0  0  0  0  0
   -0.3050   29.6986   20.6667 O   0  0  0  0  0  0  0  0  0  0  0  0
    0.1634   31.5157   19.1196 C   0  0  2  0  0  0  0  0  0  0  0  0
    2.3169   28.4429   20.1253 O   0  0  0  0  0  0  0  0  0  0  0  0
    0.7351   30.4721   20.1379 C   0  0  2  0  0  0  0  0  0  0  0  0
    3.3896   33.5122   16.9824 O   0  0  0  0  0  0  0  0  0  0  0  0
    1.8290   29.5913   19.4055 C   0  0  1  0  0  0  0  0  0  0  0  0
    4.9705   32.4336   18.2321 O   0  0  0  0  0  0  0  0  0  0  0  0
    3.0136   30.5528   19.1667 C   0  0  0  0  0  0  0  0  0  0  0  0
   -2.5860   32.4540   17.8047 O   0  0  0  0  0  0  0  0  0  0  0  0
    3.6541   32.6554   17.8670 C   0  0  0  0  0  0  0  0  0  0  0  0
   -2.9181   30.1937   19.0845 O   0  0  0  0  0  0  0  0  0  0  0  0
    1.8221   27.0736   19.9231 C   0  0  2  0  0  0  0  0  0  0  0  0
   -2.4933   30.2973   16.3506 O   0  0  0  0  0  0  0  0  0  0  0  0
    0.7855   26.5996   20.9698 C   0  0  0  0  0  0  0  0  0  0  0  0
    4.0415   26.7418   20.8814 O   0  0  0  0  0  0  0  0  0  0  0  0
    3.1150   26.3093   20.1547 C   0  0  0  0  0  0  0  0  0  0  0  0
    3.3293   25.1380   19.4550 O   0  0  0  0  0  0  0  0  0  0  0  0
    3.7036   27.8368   17.4477 O   0  0  0  0  0  0  0  0  0  0  0  0
    1.7079   27.4120   15.8474 O   0  0  0  0  0  0  0  0  0  0  0  0
    3.1161   25.3517   16.8512 O   0  0  0  0  0  0  0  0  0  0  0  0
    1.4876   26.6833   18.5582 O   0  0  0  0  0  0  0  0  0  0  0  0
    1.0858   33.2822   18.1235 H   0  0  0  0  0  0  0  0  0  0  0  0
   -0.8308   30.2913   21.2652 H   0  0  0  0  0  0  0  0  0  0  0  0
   -0.5406   32.2037   19.6397 H   0  0  0  0  0  0  0  0  0  0  0  0
    1.2205   31.0170   20.9837 H   0  0  0  0  0  0  0  0  0  0  0  0
    1.4522   29.2651   18.4125 H   0  0  0  0  0  0  0  0  0  0  0  0
    5.7241   32.9634   17.8104 H   0  0  0  0  0  0  0  0  0  0  0  0
    3.7637   30.0300   18.5337 H   0  0  0  0  0  0  0  0  0  0  0  0
    3.5005   30.7982   20.1360 H   0  0  0  0  0  0  0  0  0  0  0  0
   -2.6116   29.2557   19.0007 H   0  0  0  0  0  0  0  0  0  0  0  0
   -1.9402   30.7905   15.6933 H   0  0  0  0  0  0  0  0  0  0  0  0
   -0.1103   27.2474   20.9801 H   0  0  0  0  0  0  0  0  0  0  0  0
    1.2101   26.6532   21.9954 H   0  0  0  0  0  0  0  0  0  0  0  0
    0.4724   25.5541   20.7612 H   0  0  0  0  0  0  0  0  0  0  0  0
    4.1939   24.6192   19.5553 H   0  0  0  0  0  0  0  0  0  0  0  0
    0.7508   27.3282   16.0887 H   0  0  0  0  0  0  0  0  0  0  0  0
    3.7785   25.4869   16.1273 H   0  0  0  0  0  0  0  0  0  0  0  0
  4  1  1  0
  5  3  2  0
  7  5  1  0
  7  4  1  0
  9  7  1  0
  9  6  1  0
 11  9  1  0
 11  8  1  0
 13 11  1  0
 13  3  1  0
 14  1  2  0
 15  3  1  0
 15 10  2  0
 15 12  1  0
 16  1  1  0
 17  8  1  6
 18  1  1  0
 17 19  1  0
 21 20  2  0
 21 17  1  0
 22 21  1  0
 23  2  2  0
 24  2  1  0
 25  2  1  0
 26 17  1  0
 26  2  1  0
  5 27  1  0
  6 28  1  0
  7 29  1  1
  9 30  1  1
 11 31  1  6
 12 32  1  0
 13 33  1  0
 13 34  1  0
 16 35  1  0
 18 36  1  0
 19 37  1  0
 19 38  1  0
 19 39  1  0
 22 40  1  0
 24 41  1  0
 25 42  1  0
M  END
