
     RDKit          3D

 20 20  0  0  0  0  0  0  0  0999 V2000
   -0.5692   58.3413   30.6062 Cl  0  0  0  0  0  0  0  0  0  0  0  0
   -2.3051   58.5888   30.6072 C   0  0  0  0  0  0  0  0  0  0  0  0
   -2.8257   59.7905   31.0823 C   0  0  0  0  0  0  0  0  0  0  0  0
   -4.2073   60.0239   31.0902 C   0  0  0  0  0  0  0  0  0  0  0  0
   -5.0950   59.0058   30.6453 C   0  0  0  0  0  0  0  0  0  0  0  0
   -4.5491   57.7857   30.1863 C   0  0  0  0  0  0  0  0  0  0  0  0
   -3.1640   57.5862   30.1526 C   0  0  0  0  0  0  0  0  0  0  0  0
   -6.5720   59.1536   30.7076 C   0  0  0  0  0  0  0  0  0  0  0  0
   -7.2679   59.1374   29.6559 O   0  0  0  0  0  0  0  0  0  0  0  0
   -7.2034   59.3465   31.9357 O   0  0  0  0  0  0  0  0  0  0  0  0
   -8.4061   60.0995   32.0138 C   0  0  0  0  0  0  0  0  0  0  0  0
   -4.6662   61.2942   31.5629 N   0  0  0  0  0  0  0  0  0  0  0  0
   -2.1473   60.5598   31.4312 H   0  0  0  0  0  0  0  0  0  0  0  0
   -5.1925   56.9837   29.8472 H   0  0  0  0  0  0  0  0  0  0  0  0
   -2.7634   56.6479   29.7905 H   0  0  0  0  0  0  0  0  0  0  0  0
   -9.2059   59.4968   32.4947 H   0  0  0  0  0  0  0  0  0  0  0  0
   -8.2369   61.0335   32.5912 H   0  0  0  0  0  0  0  0  0  0  0  0
   -8.7324   60.3689   30.9884 H   0  0  0  0  0  0  0  0  0  0  0  0
   -5.1237   61.3906   32.4947 H   0  0  0  0  0  0  0  0  0  0  0  0
   -4.8360   62.0710   30.8853 H   0  0  0  0  0  0  0  0  0  0  0  0
  2  1  1  0
  3  2  2  0
  4  3  1  0
  5  4  2  0
  6  5  1  0
  7  6  2  0
  7  2  1  0
  8  5  1  0
  9  8  2  0
 10  8  1  0
 11 10  1  0
 12  4  1  0
  3 13  1  0
  6 14  1  0
  7 15  1  0
 11 16  1  0
 11 17  1  0
 11 18  1  0
 12 19  1  0
 12 20  1  0
M  END
