
     RDKit          3D

 87 92  0  0  0  0  0  0  0  0999 V2000
   26.9783   12.5787   16.3140 P   0  0  2  0  0  0  0  0  0  0  0  0
   28.9711   12.9086   14.2998 P   0  0  1  0  0  0  0  0  0  0  0  0
   27.3408   11.2986   17.0257 O   0  0  0  0  0  0  0  0  0  0  0  0
   25.3076   12.7412   16.2768 O   0  0  0  0  0  0  0  0  0  0  0  0
   27.3815   12.4878   14.6765 O   0  0  0  0  0  0  0  0  0  0  0  0
   27.1918   15.0866   16.7072 C   0  0  0  0  0  0  0  0  0  0  0  0
   27.6621   13.8555   17.1793 O   0  0  0  0  0  0  0  0  0  0  0  0
   28.1000   16.1569   17.3214 C   0  0  1  0  0  0  0  0  0  0  0  0
   29.4415   15.9031   16.9839 O   0  0  0  0  0  0  0  0  0  0  0  0
   27.6729   17.5743   16.9065 C   0  0  1  0  0  0  0  0  0  0  0  0
   26.3324   17.8028   17.2803 O   0  0  0  0  0  0  0  0  0  0  0  0
   28.5925   18.6611   17.5227 C   0  0  1  0  0  0  0  0  0  0  0  0
   29.9494   18.4865   17.1818 O   0  0  0  0  0  0  0  0  0  0  0  0
   28.0838   20.0495   17.0889 C   0  0  0  0  0  0  0  0  0  0  0  0
   30.7660    8.4549   10.9091 C   0  0  1  0  0  0  0  0  0  0  0  0
   29.0922   20.9381   19.4960 N   0  0  0  0  0  0  0  0  0  0  0  0
   29.5387    4.4310    7.8989 N   0  0  0  0  0  0  0  0  0  0  0  0
   28.9107   13.6437   12.9835 O   0  0  0  0  0  0  0  0  0  0  0  0
   29.5439   21.3320   20.7083 C   0  0  0  0  0  0  0  0  0  0  0  0
   30.5034    4.5051    8.8665 C   0  0  0  0  0  0  0  0  0  0  0  0
   31.3956    9.8039   10.6115 C   0  0  2  0  0  0  0  0  0  0  0  0
   29.0066   20.8640   21.7429 O   0  0  0  0  0  0  0  0  0  0  0  0
   29.8178   13.8339   15.4096 O   0  0  0  0  0  0  0  0  0  0  0  0
   32.5823    9.7020    9.8764 O   0  0  0  0  0  0  0  0  0  0  0  0
   31.5830   10.3824   11.9834 C   0  0  2  0  0  0  0  0  0  0  0  0
   30.5496   22.2498   20.8116 N   0  0  0  0  0  0  0  0  0  0  0  0
   30.7050    5.6637    9.5634 N   0  0  0  0  0  0  0  0  0  0  0  0
   32.8374   10.0581   12.5147 O   0  0  0  0  0  0  0  0  0  0  0  0
   31.0254   22.9099   19.7170 C   0  0  0  0  0  0  0  0  0  0  0  0
   30.5565   22.5609   18.4468 C   0  0  0  0  0  0  0  0  0  0  0  0
   30.4725    9.6891   12.7806 C   0  0  2  0  0  0  0  0  0  0  0  0
   29.9272    6.7340    9.2624 C   0  0  0  0  0  0  0  0  0  0  0  0
   31.8769   23.8306   19.8529 O   0  0  0  0  0  0  0  0  0  0  0  0
   29.9645    8.5972   12.0512 O   0  0  0  0  0  0  0  0  0  0  0  0
   30.6297   22.6856   16.0837 C   0  0  0  0  0  0  0  0  0  0  0  0
   29.3429   10.6455   13.1567 C   0  0  0  0  0  0  0  0  0  0  0  0
   28.9564    6.6846    8.3163 C   0  0  0  0  0  0  0  0  0  0  0  0
   30.9974   23.1507   17.3099 N   0  0  0  0  0  0  0  0  0  0  0  0
   29.8776   11.5015   14.1309 O   0  0  0  0  0  0  0  0  0  0  0  0
   31.2236   23.2294   14.9212 C   0  0  0  0  0  0  0  0  0  0  0  0
   28.7441    5.4990    7.6033 C   0  0  0  0  0  0  0  0  0  0  0  0
   27.7504    5.3849    6.5909 N   0  0  0  0  0  0  0  0  0  0  0  0
   32.1734   24.2355   15.0379 O   0  0  0  0  0  0  0  0  0  0  0  0
   30.9215   22.7132   13.6391 C   0  0  0  0  0  0  0  0  0  0  0  0
   31.5734   23.2968   12.3974 C   0  0  0  0  0  0  0  0  0  0  0  0
   28.3165    7.8701    8.2407 N   0  0  0  0  0  0  0  0  0  0  0  0
   30.0681   21.5902   13.5470 C   0  0  0  0  0  0  0  0  0  0  0  0
   28.9422    8.6218    9.1832 C   0  0  0  0  0  0  0  0  0  0  0  0
   29.7493   20.9453   12.2201 C   0  0  0  0  0  0  0  0  0  0  0  0
   29.4747   21.0657   14.7043 C   0  0  0  0  0  0  0  0  0  0  0  0
   29.7202   21.6041   15.9840 C   0  0  0  0  0  0  0  0  0  0  0  0
   29.9494    7.9617    9.8071 N   0  0  0  0  0  0  0  0  0  0  0  0
   29.5872   21.4752   18.3534 C   0  0  0  0  0  0  0  0  0  0  0  0
   29.1360   21.0812   17.1282 N   0  0  0  0  0  0  0  0  0  0  0  0
   25.0352   12.7797   17.2284 H   0  0  0  0  0  0  0  0  0  0  0  0
   27.2487   15.1561   15.5963 H   0  0  0  0  0  0  0  0  0  0  0  0
   26.1420   15.2396   17.0413 H   0  0  0  0  0  0  0  0  0  0  0  0
   28.0145   16.0794   18.4283 H   0  0  0  0  0  0  0  0  0  0  0  0
   29.5551   16.1381   16.0258 H   0  0  0  0  0  0  0  0  0  0  0  0
   27.7311   17.6461   15.7971 H   0  0  0  0  0  0  0  0  0  0  0  0
   25.7506   17.4071   16.5792 H   0  0  0  0  0  0  0  0  0  0  0  0
   28.5230   18.5982   18.6308 H   0  0  0  0  0  0  0  0  0  0  0  0
   30.0094   18.4239   16.1952 H   0  0  0  0  0  0  0  0  0  0  0  0
   27.2404   20.3411   17.7543 H   0  0  0  0  0  0  0  0  0  0  0  0
   27.5883   20.0271   16.0974 H   0  0  0  0  0  0  0  0  0  0  0  0
   31.5712    7.7181   11.1346 H   0  0  0  0  0  0  0  0  0  0  0  0
   31.1132    3.6385    9.0816 H   0  0  0  0  0  0  0  0  0  0  0  0
   30.6832   10.4646   10.0668 H   0  0  0  0  0  0  0  0  0  0  0  0
   30.1168   13.1934   16.1035 H   0  0  0  0  0  0  0  0  0  0  0  0
   32.3220    9.4248    8.9593 H   0  0  0  0  0  0  0  0  0  0  0  0
   31.4662   11.4923   11.9443 H   0  0  0  0  0  0  0  0  0  0  0  0
   30.8980   22.5194   21.7601 H   0  0  0  0  0  0  0  0  0  0  0  0
   33.2118    9.3416   11.9381 H   0  0  0  0  0  0  0  0  0  0  0  0
   30.8926    9.2801   13.7283 H   0  0  0  0  0  0  0  0  0  0  0  0
   28.4959   10.0720   13.5932 H   0  0  0  0  0  0  0  0  0  0  0  0
   28.9975   11.1820   12.2429 H   0  0  0  0  0  0  0  0  0  0  0  0
   27.6238    4.4850    6.0767 H   0  0  0  0  0  0  0  0  0  0  0  0
   27.1369    6.1946    6.3492 H   0  0  0  0  0  0  0  0  0  0  0  0
   32.0055   25.0968   15.5437 H   0  0  0  0  0  0  0  0  0  0  0  0
   30.8605   23.9478   11.8501 H   0  0  0  0  0  0  0  0  0  0  0  0
   31.9056   22.4734   11.7312 H   0  0  0  0  0  0  0  0  0  0  0  0
   32.4513   23.9255   12.6533 H   0  0  0  0  0  0  0  0  0  0  0  0
   28.6436    9.6351    9.4172 H   0  0  0  0  0  0  0  0  0  0  0  0
   29.2561   19.9577   12.3453 H   0  0  0  0  0  0  0  0  0  0  0  0
   30.6814   20.7768   11.6412 H   0  0  0  0  0  0  0  0  0  0  0  0
   29.0699   21.6046   11.6405 H   0  0  0  0  0  0  0  0  0  0  0  0
   28.8279   20.2139   14.5725 H   0  0  0  0  0  0  0  0  0  0  0  0
  3  1  2  0
  1  4  1  6
  5  1  1  0
  2  5  1  1
  7  6  1  0
  7  1  1  0
  8  6  1  0
  8  9  1  0
 10  8  1  0
 10 11  1  0
 12 10  1  0
 12 13  1  0
 14 12  1  0
 18  2  2  0
 19 16  1  0
 20 17  2  0
 21 15  1  0
 22 19  2  0
 23  2  1  0
 21 24  1  0
 25 21  1  0
 26 19  1  0
 27 20  1  0
 25 28  1  0
 29 26  1  0
 30 29  1  0
 31 25  1  0
 32 27  2  0
 33 29  2  0
 34 31  1  0
 34 15  1  0
 31 36  1  0
 37 32  1  0
 38 35  1  0
 38 30  2  0
 39 36  1  0
 39  2  1  0
 40 35  2  0
 41 17  1  0
 41 37  2  0
 42 41  1  0
 43 40  1  0
 44 40  1  0
 45 44  1  0
 46 37  1  0
 47 44  2  0
 48 46  2  0
 49 47  1  0
 50 47  1  0
 51 50  2  0
 51 35  1  0
 52 48  1  0
 52 32  1  0
 15 52  1  0
 53 16  2  0
 53 30  1  0
 54 53  1  0
 54 51  1  0
 54 14  1  0
  4 55  1  0
  6 56  1  0
  6 57  1  0
  8 58  1  1
  9 59  1  0
 10 60  1  6
 11 61  1  0
 12 62  1  1
 13 63  1  0
 14 64  1  0
 14 65  1  0
 15 66  1  1
 20 67  1  0
 21 68  1  6
 23 69  1  0
 24 70  1  0
 25 71  1  6
 26 72  1  0
 28 73  1  0
 31 74  1  1
 36 75  1  0
 36 76  1  0
 42 77  1  0
 42 78  1  0
 43 79  1  0
 45 80  1  0
 45 81  1  0
 45 82  1  0
 48 83  1  0
 49 84  1  0
 49 85  1  0
 49 86  1  0
 50 87  1  0
M  END
