
     RDKit          3D

 12 11  0  0  0  0  0  0  0  0999 V2000
    3.5541   -5.3177    8.1808 C   0  0  0  0  0  0  0  0  0  0  0  0
    4.4147   -5.9830    7.5476 O   0  0  0  0  0  0  0  0  0  0  0  0
    1.0952   -4.2588    8.4004 S   0  0  0  0  0  0  0  0  0  0  0  0
    2.5704   -4.4703    7.4494 C   0  0  0  0  0  0  0  0  0  0  0  0
    3.5134   -5.3762    9.5616 O   0  0  0  0  0  0  0  0  0  0  0  0
   -0.0908   -4.3272    7.4862 O   0  0  0  0  0  0  0  0  0  0  0  0
    1.1235   -2.9351    9.1028 O   0  0  0  0  0  0  0  0  0  0  0  0
    0.9902   -5.4776    9.5289 O   0  0  0  0  0  0  0  0  0  0  0  0
    2.3129   -4.9439    6.4787 H   0  0  0  0  0  0  0  0  0  0  0  0
    3.0170   -3.4743    7.2441 H   0  0  0  0  0  0  0  0  0  0  0  0
    4.3618   -5.3035   10.1104 H   0  0  0  0  0  0  0  0  0  0  0  0
    1.1889   -6.3089    9.0280 H   0  0  0  0  0  0  0  0  0  0  0  0
  2  1  2  0
  4  1  1  0
  4  3  1  0
  5  1  1  0
  6  3  2  0
  7  3  2  0
  3  8  1  0
  4  9  1  0
  4 10  1  0
  5 11  1  0
  8 12  1  0
M  END
