
     RDKit          3D

 33 34  0  0  0  0  0  0  0  0999 V2000
   13.6740   45.6909   22.3338 C   0  0  0  0  0  0  0  0  0  0  0  0
   12.7185   45.6773   23.6896 S   0  0  0  0  0  0  0  0  0  0  0  0
   11.4722   46.5175   22.9578 C   0  0  0  0  0  0  0  0  0  0  0  0
   11.7688   46.8206   21.6658 N   0  0  0  0  0  0  0  0  0  0  0  0
   13.0036   46.3624   21.3062 C   0  0  0  0  0  0  0  0  0  0  0  0
   14.8927   44.8335   22.3495 C   0  0  0  0  0  0  0  0  0  0  0  0
   16.1307   45.4687   22.9470 C   0  0  0  0  0  0  0  0  0  0  0  0
   15.0244   43.8338   21.2287 C   0  0  0  0  0  0  0  0  0  0  0  0
   10.3291   46.7958   23.5314 N   0  0  0  0  0  0  0  0  0  0  0  0
    9.9638   46.4429   24.8815 C   0  0  0  0  0  0  0  0  0  0  0  0
   10.5368   45.5000   25.4909 O   0  0  0  0  0  0  0  0  0  0  0  0
    8.8491   47.1661   25.5667 C   0  0  0  0  0  0  0  0  0  0  0  0
    9.1648   47.4375   27.0105 C   0  0  0  0  0  0  0  0  0  0  0  0
    9.6418   48.6898   27.4249 C   0  0  0  0  0  0  0  0  0  0  0  0
    9.9466   48.9069   28.7697 C   0  0  0  0  0  0  0  0  0  0  0  0
    9.7667   47.8710   29.6860 C   0  0  0  0  0  0  0  0  0  0  0  0
    9.3025   46.6650   29.2684 N   0  0  0  0  0  0  0  0  0  0  0  0
    8.9987   46.4287   27.9666 C   0  0  0  0  0  0  0  0  0  0  0  0
   11.1219   47.3200   21.0156 H   0  0  0  0  0  0  0  0  0  0  0  0
   13.3916   46.4593   20.3008 H   0  0  0  0  0  0  0  0  0  0  0  0
   14.6717   44.1044   23.1654 H   0  0  0  0  0  0  0  0  0  0  0  0
   16.4609   46.3398   22.3400 H   0  0  0  0  0  0  0  0  0  0  0  0
   16.9511   44.7211   22.9725 H   0  0  0  0  0  0  0  0  0  0  0  0
   15.9330   45.8119   23.9857 H   0  0  0  0  0  0  0  0  0  0  0  0
   16.0238   43.3531   21.2808 H   0  0  0  0  0  0  0  0  0  0  0  0
   14.9213   44.3332   20.2403 H   0  0  0  0  0  0  0  0  0  0  0  0
   14.2487   43.0417   21.3131 H   0  0  0  0  0  0  0  0  0  0  0  0
    8.6440   48.1205   25.0344 H   0  0  0  0  0  0  0  0  0  0  0  0
    7.9207   46.5588   25.4920 H   0  0  0  0  0  0  0  0  0  0  0  0
    9.7794   49.4906   26.7089 H   0  0  0  0  0  0  0  0  0  0  0  0
   10.3171   49.8694   29.0981 H   0  0  0  0  0  0  0  0  0  0  0  0
    9.9984   48.0254   30.7313 H   0  0  0  0  0  0  0  0  0  0  0  0
    8.6300   45.4527   27.6780 H   0  0  0  0  0  0  0  0  0  0  0  0
  2  1  1  0
  3  2  1  0
  4  3  1  0
  5  4  1  0
  5  1  2  0
  6  1  1  0
  6  7  1  0
  8  6  1  0
  9  3  2  3
 10  9  1  0
 11 10  2  0
 12 10  1  0
 13 12  1  0
 14 13  2  0
 15 14  1  0
 16 15  2  0
 17 16  1  0
 18 13  1  0
 18 17  2  0
  4 19  1  0
  5 20  1  0
  6 21  1  0
  7 22  1  0
  7 23  1  0
  7 24  1  0
  8 25  1  0
  8 26  1  0
  8 27  1  0
 12 28  1  0
 12 29  1  0
 14 30  1  0
 15 31  1  0
 16 32  1  0
 18 33  1  0
M  END
