
     RDKit          3D

 22 21  0  0  0  0  0  0  0  0999 V2000
   21.5433  -15.1130    9.6916 N   0  0  0  0  0  0  0  0  0  0  0  0
   22.0568  -13.7608    9.4628 C   0  0  1  0  0  0  0  0  0  0  0  0
   23.4453  -13.8014    8.8122 C   0  0  0  0  0  0  0  0  0  0  0  0
   24.5629  -13.9941    9.8303 C   0  0  0  0  0  0  0  0  0  0  0  0
   25.8888  -14.9513    9.0234 S   0  0  0  0  0  0  0  0  0  0  0  0
   27.2242  -14.4160   10.1313 C   0  0  0  0  0  0  0  0  0  0  0  0
   20.9323  -12.8438    8.3825 P   0  0  0  0  0  0  0  0  0  0  0  0
   21.7038  -11.7300    7.7126 O   0  0  0  0  0  0  0  0  0  0  0  0
   19.6709  -12.2219    9.3146 O   0  0  0  0  0  0  0  0  0  0  0  0
   20.3165  -13.8834    7.2108 O   0  0  0  0  0  0  0  0  0  0  0  0
   21.3373  -15.5717    8.7739 H   0  0  0  0  0  0  0  0  0  0  0  0
   20.6452  -15.0487   10.2238 H   0  0  0  0  0  0  0  0  0  0  0  0
   22.1131  -13.2214   10.4339 H   0  0  0  0  0  0  0  0  0  0  0  0
   23.6364  -12.8411    8.2826 H   0  0  0  0  0  0  0  0  0  0  0  0
   23.4812  -14.6196    8.0589 H   0  0  0  0  0  0  0  0  0  0  0  0
   24.9422  -13.0009   10.1545 H   0  0  0  0  0  0  0  0  0  0  0  0
   24.1935  -14.5561   10.7143 H   0  0  0  0  0  0  0  0  0  0  0  0
   26.9636  -14.6560   11.1832 H   0  0  0  0  0  0  0  0  0  0  0  0
   28.1577  -14.9498    9.8593 H   0  0  0  0  0  0  0  0  0  0  0  0
   27.3902  -13.3238   10.0255 H   0  0  0  0  0  0  0  0  0  0  0  0
   20.0026  -11.3495    9.6459 H   0  0  0  0  0  0  0  0  0  0  0  0
   21.0943  -14.1118    6.6418 H   0  0  0  0  0  0  0  0  0  0  0  0
  2  1  1  0
  3  2  1  0
  4  3  1  0
  5  4  1  0
  6  5  1  0
  7  2  1  0
  8  7  2  0
  9  7  1  0
 10  7  1  0
  1 11  1  0
  1 12  1  0
  2 13  1  1
  3 14  1  0
  3 15  1  0
  4 16  1  0
  4 17  1  0
  6 18  1  0
  6 19  1  0
  6 20  1  0
  9 21  1  0
 10 22  1  0
M  END
