
     RDKit          3D

 38 38  0  0  0  0  0  0  0  0999 V2000
   31.0497    7.1124   -7.8211 N   0  0  0  0  0  0  0  0  0  0  0  0
   30.6448    5.9187   -7.0262 C   0  0  1  0  0  0  0  0  0  0  0  0
   31.5754    5.5841   -5.8752 C   0  0  0  0  0  0  0  0  0  0  0  0
   32.6211    4.9034   -6.0412 O   0  0  0  0  0  0  0  0  0  0  0  0
   29.1869    5.9896   -6.5365 C   0  0  0  0  0  0  0  0  0  0  0  0
   36.5200    7.3342   -9.4066 P   0  0  0  0  0  0  0  0  0  0  0  0
   31.2017    5.9461   -4.5864 O   0  0  0  0  0  0  0  0  0  0  0  0
   32.8551   11.1019  -10.0292 N   0  0  0  0  0  0  0  0  0  0  0  0
   32.2785   11.0458   -8.8059 C   0  0  0  0  0  0  0  0  0  0  0  0
   31.5776   12.2566   -8.2768 C   0  0  0  0  0  0  0  0  0  0  0  0
   32.3329    9.8609   -8.0542 C   0  0  0  0  0  0  0  0  0  0  0  0
   31.8979    9.8944   -6.7292 O   0  0  0  0  0  0  0  0  0  0  0  0
   32.8237    8.6716   -8.6443 C   0  0  0  0  0  0  0  0  0  0  0  0
   32.5002    7.3235   -7.9769 C   0  0  0  0  0  0  0  0  0  0  0  0
   33.4776    8.7817   -9.9091 C   0  0  0  0  0  0  0  0  0  0  0  0
   34.2663    7.6589  -10.5428 C   0  0  0  0  0  0  0  0  0  0  0  0
   33.4767   10.0264  -10.5683 C   0  0  0  0  0  0  0  0  0  0  0  0
   36.5764    8.2207   -8.1874 O   0  0  0  0  0  0  0  0  0  0  0  0
   38.0691    7.0910   -9.9956 O   0  0  0  0  0  0  0  0  0  0  0  0
   35.8667    5.8441   -9.0058 O   0  0  0  0  0  0  0  0  0  0  0  0
   35.6110    8.0666  -10.6297 O   0  0  0  0  0  0  0  0  0  0  0  0
   30.6470    7.9639   -7.3638 H   0  0  0  0  0  0  0  0  0  0  0  0
   30.6977    5.0443   -7.7116 H   0  0  0  0  0  0  0  0  0  0  0  0
   28.4940    5.7167   -7.3576 H   0  0  0  0  0  0  0  0  0  0  0  0
   29.0236    5.2711   -5.7047 H   0  0  0  0  0  0  0  0  0  0  0  0
   28.9360    7.0103   -6.1774 H   0  0  0  0  0  0  0  0  0  0  0  0
   31.7983    6.5344   -4.0170 H   0  0  0  0  0  0  0  0  0  0  0  0
   30.5257   12.2692   -8.6324 H   0  0  0  0  0  0  0  0  0  0  0  0
   32.0795   13.1842   -8.6259 H   0  0  0  0  0  0  0  0  0  0  0  0
   31.5906   12.2427   -7.1667 H   0  0  0  0  0  0  0  0  0  0  0  0
   31.7350   10.7524   -6.2218 H   0  0  0  0  0  0  0  0  0  0  0  0
   33.0159    7.2245   -7.0045 H   0  0  0  0  0  0  0  0  0  0  0  0
   32.9292    6.5070   -8.5968 H   0  0  0  0  0  0  0  0  0  0  0  0
   33.8825    7.4660  -11.5691 H   0  0  0  0  0  0  0  0  0  0  0  0
   34.1229    6.7136   -9.9844 H   0  0  0  0  0  0  0  0  0  0  0  0
   33.9638   10.1359  -11.5291 H   0  0  0  0  0  0  0  0  0  0  0  0
   38.5443    6.6136   -9.2695 H   0  0  0  0  0  0  0  0  0  0  0  0
   36.1206    5.6960   -8.0599 H   0  0  0  0  0  0  0  0  0  0  0  0
  2  1  1  0
  3  2  1  0
  4  3  2  0
  2  5  1  0
  7  3  1  0
  9  8  2  0
 10  9  1  0
 11  9  1  0
 12 11  1  0
 13 11  2  0
 14 13  1  0
 14  1  1  0
 15 13  1  0
 16 15  1  0
 17 15  2  0
 17  8  1  0
 18  6  2  0
 19  6  1  0
 20  6  1  0
 21 16  1  0
 21  6  1  0
  1 22  1  0
  2 23  1  6
  5 24  1  0
  5 25  1  0
  5 26  1  0
  7 27  1  0
 10 28  1  0
 10 29  1  0
 10 30  1  0
 12 31  1  0
 14 32  1  0
 14 33  1  0
 16 34  1  0
 16 35  1  0
 17 36  1  0
 19 37  1  0
 20 38  1  0
M  END
