
     RDKit          3D

 84 88  0  0  0  0  0  0  0  0999 V2000
   30.5526    1.5460   34.8974 C   0  0  0  0  0  0  0  0  0  0  0  0
   29.2289    1.7202   34.4218 N   0  0  0  0  0  0  0  0  0  0  0  0
   28.9213    2.6010   33.3128 C   0  0  2  0  0  0  0  0  0  0  0  0
   28.1169    3.8100   33.8475 C   0  0  1  0  0  0  0  0  0  0  0  0
   28.1573    1.7883   32.2372 C   0  0  0  0  0  0  0  0  0  0  0  0
   28.8754    4.6336   34.9197 C   0  0  0  0  0  0  0  0  0  0  0  0
   31.4524    2.3892   34.6338 O   0  0  0  0  0  0  0  0  0  0  0  0
   30.8383    0.3852   35.7218 C   0  0  0  0  0  0  0  0  0  0  0  0
   29.9928   -0.7363   35.6845 C   0  0  0  0  0  0  0  0  0  0  0  0
   30.2680   -1.8533   36.4921 C   0  0  0  0  0  0  0  0  0  0  0  0
   31.3737   -1.8083   37.3515 C   0  0  0  0  0  0  0  0  0  0  0  0
   32.1996   -0.6711   37.4047 C   0  0  0  0  0  0  0  0  0  0  0  0
   31.9301    0.4170   36.5824 C   0  0  0  0  0  0  0  0  0  0  0  0
   28.8886    0.5253   31.7971 C   0  0  0  0  0  0  0  0  0  0  0  0
   28.2035   -0.6939   31.6064 C   0  0  0  0  0  0  0  0  0  0  0  0
   28.8993   -1.8495   31.2271 C   0  0  0  0  0  0  0  0  0  0  0  0
   30.2866   -1.8109   31.0599 C   0  0  0  0  0  0  0  0  0  0  0  0
   30.9807   -0.6158   31.2685 C   0  0  0  0  0  0  0  0  0  0  0  0
   30.2879    0.5454   31.6345 C   0  0  0  0  0  0  0  0  0  0  0  0
   28.0423    5.7902   35.3032 N   0  0  0  0  0  0  0  0  0  0  0  0
   29.4671   -3.0479   36.4527 N   0  0  0  0  0  0  0  0  0  0  0  0
   29.9923   -4.4125   36.4442 C   0  0  0  0  0  0  0  0  0  0  0  0
   30.6857   -4.7229   37.7645 C   0  0  0  0  0  0  0  0  0  0  0  0
   34.4017   -2.0373   38.2346 S   0  0  0  0  0  0  0  0  0  0  0  0
   35.6911   -1.7226   37.0560 C   0  0  0  0  0  0  0  0  0  0  0  0
   36.2325   -0.3054   37.2694 C   0  0  0  0  0  0  0  0  0  0  0  0
   35.1314    0.7741   37.2225 C   0  0  0  0  0  0  0  0  0  0  0  0
   34.0930    0.6119   38.3487 C   0  0  0  0  0  0  0  0  0  0  0  0
   34.9844   -2.1651   39.6075 O   0  0  0  0  0  0  0  0  0  0  0  0
   33.6351   -3.2710   37.8668 O   0  0  0  0  0  0  0  0  0  0  0  0
   28.7497    6.9529   35.8879 C   0  0  1  0  0  0  0  0  0  0  0  0
   29.2606    6.6505   37.3122 C   0  0  0  0  0  0  0  0  0  0  0  0
   30.0655    7.8356   37.8505 C   0  0  0  0  0  0  0  0  0  0  0  0
   31.3212    8.0600   36.9987 C   0  0  0  0  0  0  0  0  0  0  0  0
   31.0415    8.0496   35.5090 C   0  0  0  0  0  0  0  0  0  0  0  0
   29.8442    7.5037   34.9738 C   0  0  0  0  0  0  0  0  0  0  0  0
   32.0337    8.5306   34.6336 C   0  0  0  0  0  0  0  0  0  0  0  0
   31.8345    8.5135   33.2496 C   0  0  0  0  0  0  0  0  0  0  0  0
   30.6383    8.0265   32.7224 C   0  0  0  0  0  0  0  0  0  0  0  0
   29.6414    7.5463   33.5777 C   0  0  0  0  0  0  0  0  0  0  0  0
   33.3851   -0.6563   38.1988 N   0  0  0  0  0  0  0  0  0  0  0  0
   27.7413    4.6483   32.7869 O   0  0  0  0  0  0  0  0  0  0  0  0
   28.4503    1.1828   34.8687 H   0  0  0  0  0  0  0  0  0  0  0  0
   29.8536    2.9956   32.8538 H   0  0  0  0  0  0  0  0  0  0  0  0
   27.1845    3.4246   34.3165 H   0  0  0  0  0  0  0  0  0  0  0  0
   27.1513    1.5276   32.6340 H   0  0  0  0  0  0  0  0  0  0  0  0
   28.0015    2.4247   31.3400 H   0  0  0  0  0  0  0  0  0  0  0  0
   29.8546    4.9517   34.5048 H   0  0  0  0  0  0  0  0  0  0  0  0
   29.0701    4.0017   35.8137 H   0  0  0  0  0  0  0  0  0  0  0  0
   29.1371   -0.7253   35.0241 H   0  0  0  0  0  0  0  0  0  0  0  0
   31.5986   -2.6730   37.9544 H   0  0  0  0  0  0  0  0  0  0  0  0
   32.5774    1.2863   36.6142 H   0  0  0  0  0  0  0  0  0  0  0  0
   27.1350   -0.7591   31.7579 H   0  0  0  0  0  0  0  0  0  0  0  0
   28.3631   -2.7772   31.0746 H   0  0  0  0  0  0  0  0  0  0  0  0
   30.8229   -2.7054   30.7710 H   0  0  0  0  0  0  0  0  0  0  0  0
   32.0550   -0.5861   31.1406 H   0  0  0  0  0  0  0  0  0  0  0  0
   30.8449    1.4607   31.7902 H   0  0  0  0  0  0  0  0  0  0  0  0
   27.2977    5.4688   35.9661 H   0  0  0  0  0  0  0  0  0  0  0  0
   28.4263   -2.9486   36.4771 H   0  0  0  0  0  0  0  0  0  0  0  0
   30.7442   -4.5014   35.6304 H   0  0  0  0  0  0  0  0  0  0  0  0
   29.1962   -5.1507   36.2206 H   0  0  0  0  0  0  0  0  0  0  0  0
   31.5089   -3.9992   37.9439 H   0  0  0  0  0  0  0  0  0  0  0  0
   29.9570   -4.6632   38.6004 H   0  0  0  0  0  0  0  0  0  0  0  0
   31.1078   -5.7493   37.7321 H   0  0  0  0  0  0  0  0  0  0  0  0
   36.5078   -2.4604   37.2027 H   0  0  0  0  0  0  0  0  0  0  0  0
   35.3094   -1.8302   36.0213 H   0  0  0  0  0  0  0  0  0  0  0  0
   36.7593   -0.2529   38.2475 H   0  0  0  0  0  0  0  0  0  0  0  0
   36.9807   -0.0885   36.4770 H   0  0  0  0  0  0  0  0  0  0  0  0
   34.6211    0.7458   36.2351 H   0  0  0  0  0  0  0  0  0  0  0  0
   35.6098    1.7720   37.3239 H   0  0  0  0  0  0  0  0  0  0  0  0
   34.6030    0.6391   39.3360 H   0  0  0  0  0  0  0  0  0  0  0  0
   33.3811    1.4659   38.3217 H   0  0  0  0  0  0  0  0  0  0  0  0
   28.0009    7.7701   35.9853 H   0  0  0  0  0  0  0  0  0  0  0  0
   29.9023    5.7427   37.3103 H   0  0  0  0  0  0  0  0  0  0  0  0
   28.3963    6.4608   37.9851 H   0  0  0  0  0  0  0  0  0  0  0  0
   29.4368    8.7532   37.8424 H   0  0  0  0  0  0  0  0  0  0  0  0
   30.3655    7.6338   38.9014 H   0  0  0  0  0  0  0  0  0  0  0  0
   32.0573    7.2574   37.2217 H   0  0  0  0  0  0  0  0  0  0  0  0
   31.7779    9.0313   37.2885 H   0  0  0  0  0  0  0  0  0  0  0  0
   32.9652    8.9191   35.0268 H   0  0  0  0  0  0  0  0  0  0  0  0
   32.6047    8.8875   32.5875 H   0  0  0  0  0  0  0  0  0  0  0  0
   30.4760    8.0334   31.6523 H   0  0  0  0  0  0  0  0  0  0  0  0
   28.7081    7.2064   33.1504 H   0  0  0  0  0  0  0  0  0  0  0  0
   27.1264    5.3374   33.1522 H   0  0  0  0  0  0  0  0  0  0  0  0
  2  1  1  0
  3  2  1  0
  4  3  1  0
  3  5  1  0
  6  4  1  0
  7  1  2  0
  8  1  1  0
  9  8  2  0
 10  9  1  0
 11 10  2  0
 12 11  1  0
 13 12  2  0
 13  8  1  0
 14  5  1  0
 15 14  2  0
 16 15  1  0
 17 16  2  0
 18 17  1  0
 19 18  2  0
 19 14  1  0
 20  6  1  0
 21 10  1  0
 22 21  1  0
 23 22  1  0
 24 25  1  0
 26 25  1  0
 27 26  1  0
 28 27  1  0
 29 24  2  0
 30 24  2  0
 31 20  1  0
 32 31  1  0
 33 32  1  0
 34 33  1  0
 35 34  1  0
 36 35  2  0
 36 31  1  0
 37 35  1  0
 38 37  2  0
 39 38  1  0
 40 39  2  0
 40 36  1  0
 41 12  1  0
 41 24  1  0
 41 28  1  0
  4 42  1  0
  2 43  1  0
  3 44  1  6
  4 45  1  1
  5 46  1  0
  5 47  1  0
  6 48  1  0
  6 49  1  0
  9 50  1  0
 11 51  1  0
 13 52  1  0
 15 53  1  0
 16 54  1  0
 17 55  1  0
 18 56  1  0
 19 57  1  0
 20 58  1  0
 21 59  1  0
 22 60  1  0
 22 61  1  0
 23 62  1  0
 23 63  1  0
 23 64  1  0
 25 65  1  0
 25 66  1  0
 26 67  1  0
 26 68  1  0
 27 69  1  0
 27 70  1  0
 28 71  1  0
 28 72  1  0
 31 73  1  1
 32 74  1  0
 32 75  1  0
 33 76  1  0
 33 77  1  0
 34 78  1  0
 34 79  1  0
 37 80  1  0
 38 81  1  0
 39 82  1  0
 40 83  1  0
 42 84  1  0
M  END
