
     RDKit          3D

 44 46  0  0  0  0  0  0  0  0999 V2000
   34.2851   49.9836   35.4753 C   0  0  0  0  0  0  0  0  0  0  0  0
   35.6058   50.3751   35.7333 C   0  0  0  0  0  0  0  0  0  0  0  0
   36.6685   49.4589   35.5781 C   0  0  0  0  0  0  0  0  0  0  0  0
   36.3849   48.1503   35.1398 C   0  0  0  0  0  0  0  0  0  0  0  0
   35.0619   47.7658   34.8775 C   0  0  0  0  0  0  0  0  0  0  0  0
   34.0130   48.6811   35.0424 C   0  0  0  0  0  0  0  0  0  0  0  0
   38.1049   49.8857   35.7795 C   0  0  0  0  0  0  0  0  0  0  0  0
   38.1768   51.3503   36.2956 C   0  0  2  0  0  0  0  0  0  0  0  0
   39.6195   51.8430   36.3767 C   0  0  0  0  0  0  0  0  0  0  0  0
   37.4831   51.4911   37.5832 N   0  0  0  0  0  0  0  0  0  0  0  0
   40.4417   51.3024   37.3840 C   0  0  0  0  0  0  0  0  0  0  0  0
   41.7762   51.6941   37.5227 C   0  0  0  0  0  0  0  0  0  0  0  0
   42.3563   52.6254   36.6433 C   0  0  0  0  0  0  0  0  0  0  0  0
   41.5440   53.1593   35.6024 C   0  0  0  0  0  0  0  0  0  0  0  0
   40.1892   52.7775   35.4722 C   0  0  0  0  0  0  0  0  0  0  0  0
   43.8203   52.9687   36.7834 C   0  0  0  0  0  0  0  0  0  0  0  0
   44.3035   53.8866   37.7552 C   0  0  0  0  0  0  0  0  0  0  0  0
   45.6860   54.1434   37.8771 C   0  0  0  0  0  0  0  0  0  0  0  0
   46.6066   53.4814   37.0443 C   0  0  0  0  0  0  0  0  0  0  0  0
   46.1436   52.5655   36.0747 C   0  0  0  0  0  0  0  0  0  0  0  0
   44.7601   52.3207   35.9611 C   0  0  0  0  0  0  0  0  0  0  0  0
   47.0657   51.8580   35.1545 C   0  0  0  0  0  0  0  0  0  0  0  0
   47.9533   52.6029   34.3262 N   0  0  0  0  0  0  0  0  0  0  0  0
   47.0636   50.6020   35.0731 O   0  0  0  0  0  0  0  0  0  0  0  0
   34.7952   46.5096   34.4509 F   0  0  0  0  0  0  0  0  0  0  0  0
   35.8440   51.6448   36.1349 F   0  0  0  0  0  0  0  0  0  0  0  0
   33.4752   50.6906   35.6007 H   0  0  0  0  0  0  0  0  0  0  0  0
   37.1861   47.4359   34.9950 H   0  0  0  0  0  0  0  0  0  0  0  0
   32.9934   48.3818   34.8362 H   0  0  0  0  0  0  0  0  0  0  0  0
   38.6310   49.7874   34.8069 H   0  0  0  0  0  0  0  0  0  0  0  0
   38.6265   49.2096   36.4912 H   0  0  0  0  0  0  0  0  0  0  0  0
   37.6610   52.0063   35.5581 H   0  0  0  0  0  0  0  0  0  0  0  0
   37.1485   52.4760   37.6973 H   0  0  0  0  0  0  0  0  0  0  0  0
   38.1517   51.2885   38.3612 H   0  0  0  0  0  0  0  0  0  0  0  0
   40.0558   50.5527   38.0631 H   0  0  0  0  0  0  0  0  0  0  0  0
   42.3710   51.2371   38.3037 H   0  0  0  0  0  0  0  0  0  0  0  0
   41.9549   53.8777   34.9047 H   0  0  0  0  0  0  0  0  0  0  0  0
   39.6034   53.2104   34.6727 H   0  0  0  0  0  0  0  0  0  0  0  0
   43.6123   54.4073   38.4054 H   0  0  0  0  0  0  0  0  0  0  0  0
   46.0398   54.8495   38.6170 H   0  0  0  0  0  0  0  0  0  0  0  0
   47.6650   53.6864   37.1449 H   0  0  0  0  0  0  0  0  0  0  0  0
   44.4117   51.5848   35.2466 H   0  0  0  0  0  0  0  0  0  0  0  0
   48.1806   53.5946   34.5614 H   0  0  0  0  0  0  0  0  0  0  0  0
   48.3425   52.1990   33.4456 H   0  0  0  0  0  0  0  0  0  0  0  0
  2  1  2  0
  3  2  1  0
  4  3  2  0
  5  4  1  0
  6  5  2  0
  6  1  1  0
  7  3  1  0
  8  7  1  0
  9  8  1  0
  8 10  1  0
 11  9  2  0
 12 11  1  0
 13 12  2  0
 14 13  1  0
 15 14  2  0
 15  9  1  0
 16 13  1  0
 17 16  2  0
 18 17  1  0
 19 18  2  0
 20 19  1  0
 21 20  2  0
 21 16  1  0
 22 20  1  0
 23 22  1  0
 24 22  2  0
 25  5  1  0
 26  2  1  0
  1 27  1  0
  4 28  1  0
  6 29  1  0
  7 30  1  0
  7 31  1  0
  8 32  1  6
 10 33  1  0
 10 34  1  0
 11 35  1  0
 12 36  1  0
 14 37  1  0
 15 38  1  0
 17 39  1  0
 18 40  1  0
 19 41  1  0
 21 42  1  0
 23 43  1  0
 23 44  1  0
M  END
