
     RDKit          3D

 38 39  0  0  0  0  0  0  0  0999 V2000
    7.9664   14.7927   12.8351 P   0  0  0  0  0  0  0  0  0  0  0  0
    6.7656   15.6158   13.2320 O   0  0  0  0  0  0  0  0  0  0  0  0
    8.7815   14.2534   14.1896 O   0  0  0  0  0  0  0  0  0  0  0  0
    7.5010   13.4934   11.8871 O   0  0  0  0  0  0  0  0  0  0  0  0
   11.2521   18.0218    9.3845 C   0  0  1  0  0  0  0  0  0  0  0  0
   12.4910   17.5060    8.7767 N   0  0  0  0  0  0  0  0  0  0  0  0
   12.8768   17.8250    7.5017 C   0  0  0  0  0  0  0  0  0  0  0  0
   10.1418   18.4007    8.3871 C   0  0  2  0  0  0  0  0  0  0  0  0
   10.1734   19.7768    8.0888 O   0  0  0  0  0  0  0  0  0  0  0  0
   14.0207   17.2602    6.9306 C   0  0  0  0  0  0  0  0  0  0  0  0
    8.8563   17.9466    9.0618 C   0  0  2  0  0  0  0  0  0  0  0  0
    7.9549   18.9962    9.3039 O   0  0  0  0  0  0  0  0  0  0  0  0
   14.8178   16.4307    7.7289 C   0  0  0  0  0  0  0  0  0  0  0  0
    9.3486   17.3625   10.3721 C   0  0  2  0  0  0  0  0  0  0  0  0
   10.7083   17.0398   10.2295 O   0  0  0  0  0  0  0  0  0  0  0  0
   14.4710   16.1877    9.0497 C   0  0  0  0  0  0  0  0  0  0  0  0
    8.5750   16.1187   10.7728 C   0  0  0  0  0  0  0  0  0  0  0  0
    9.0882   15.7312   12.0134 O   0  0  0  0  0  0  0  0  0  0  0  0
   13.2990   16.7283    9.5586 C   0  0  0  0  0  0  0  0  0  0  0  0
   14.3530   17.5243    5.5103 C   0  0  0  0  0  0  0  0  0  0  0  0
   15.5418   17.0115    4.9174 N   0  0  0  0  0  0  0  0  0  0  0  0
   13.5660   18.1932    4.7906 O   0  0  0  0  0  0  0  0  0  0  0  0
    8.4459   13.3335   14.3394 H   0  0  0  0  0  0  0  0  0  0  0  0
    7.9754   13.6252   11.0278 H   0  0  0  0  0  0  0  0  0  0  0  0
   11.5206   18.9044   10.0105 H   0  0  0  0  0  0  0  0  0  0  0  0
   12.3352   18.5506    6.9151 H   0  0  0  0  0  0  0  0  0  0  0  0
   10.1966   17.8192    7.4440 H   0  0  0  0  0  0  0  0  0  0  0  0
    9.2399   20.1156    8.0799 H   0  0  0  0  0  0  0  0  0  0  0  0
    8.3622   17.1585    8.4419 H   0  0  0  0  0  0  0  0  0  0  0  0
    7.5640   19.2401    8.4246 H   0  0  0  0  0  0  0  0  0  0  0  0
   15.7057   15.9462    7.3563 H   0  0  0  0  0  0  0  0  0  0  0  0
    9.2483   18.1215   11.1846 H   0  0  0  0  0  0  0  0  0  0  0  0
   15.0948   15.5576    9.6710 H   0  0  0  0  0  0  0  0  0  0  0  0
    7.4926   16.3882   10.8146 H   0  0  0  0  0  0  0  0  0  0  0  0
    8.7342   15.3067   10.0285 H   0  0  0  0  0  0  0  0  0  0  0  0
   13.0362   16.5133   10.5882 H   0  0  0  0  0  0  0  0  0  0  0  0
   15.6802   17.1077    3.8867 H   0  0  0  0  0  0  0  0  0  0  0  0
   16.3522   16.6593    5.4680 H   0  0  0  0  0  0  0  0  0  0  0  0
  2  1  2  0
  3  1  1  0
  4  1  1  0
  5  6  1  0
  7  6  2  0
  8  5  1  0
  8  9  1  0
 10  7  1  0
 11  8  1  0
 11 12  1  0
 13 10  2  0
 14 11  1  0
 15 14  1  0
 15  5  1  0
 16 13  1  0
 14 17  1  0
 18 17  1  0
 18  1  1  0
 19 16  2  0
 19  6  1  0
 20 10  1  0
 21 20  1  0
 22 20  2  0
  3 23  1  0
  4 24  1  0
  5 25  1  1
  7 26  1  0
  8 27  1  6
  9 28  1  0
 11 29  1  6
 12 30  1  0
 13 31  1  0
 14 32  1  1
 16 33  1  0
 17 34  1  0
 17 35  1  0
 19 36  1  0
 21 37  1  0
 21 38  1  0
M  CHG  1   6   1
M  END
