
     RDKit          3D

 53 53  0  0  0  0  0  0  0  0999 V2000
   26.0938  -13.5916    7.9402 P   0  0  0  0  0  0  0  0  0  0  0  0
   25.5190  -13.4462   10.8060 P   0  0  0  0  0  0  0  0  0  0  0  0
   26.8495  -13.6088    9.5798 C   0  0  0  0  0  0  0  0  0  0  0  0
   28.2851  -15.1614   11.0112 N   0  0  0  0  0  0  0  0  0  0  0  0
   25.3476  -12.3003    7.7104 O   0  0  0  0  0  0  0  0  0  0  0  0
   27.6616  -14.9152    9.7003 C   0  0  0  0  0  0  0  0  0  0  0  0
   27.3437  -13.7554    6.8345 O   0  0  0  0  0  0  0  0  0  0  0  0
   28.9782  -14.1899   11.6831 C   0  0  0  0  0  0  0  0  0  0  0  0
   25.0330  -14.8929    7.8369 O   0  0  0  0  0  0  0  0  0  0  0  0
   29.6221  -14.4825   12.8906 C   0  0  0  0  0  0  0  0  0  0  0  0
   24.7450  -12.1794   10.5225 O   0  0  0  0  0  0  0  0  0  0  0  0
   29.5972  -15.7849   13.3833 C   0  0  0  0  0  0  0  0  0  0  0  0
   26.1538  -13.3654   12.3543 O   0  0  0  0  0  0  0  0  0  0  0  0
   28.9342  -16.7836   12.6605 C   0  0  0  0  0  0  0  0  0  0  0  0
   24.4844  -14.7659   10.7257 O   0  0  0  0  0  0  0  0  0  0  0  0
   28.2933  -16.4468   11.4722 C   0  0  0  0  0  0  0  0  0  0  0  0
   28.8867  -18.1136   13.0773 O   0  0  0  0  0  0  0  0  0  0  0  0
   28.7541  -18.5315   14.4296 C   0  0  0  0  0  0  0  0  0  0  0  0
   28.7147  -20.0541   14.4386 C   0  0  0  0  0  0  0  0  0  0  0  0
   29.1428  -20.6599   13.0996 C   0  0  0  0  0  0  0  0  0  0  0  0
   29.6166  -22.1146   13.2566 C   0  0  0  0  0  0  0  0  0  0  0  0
   28.4474  -23.1043   13.2478 C   0  0  0  0  0  0  0  0  0  0  0  0
   28.7594  -24.3903   14.0282 C   0  0  0  0  0  0  0  0  0  0  0  0
   27.5563  -24.8962   14.8315 C   0  0  0  0  0  0  0  0  0  0  0  0
   27.1767  -26.3126   14.4077 C   0  0  0  0  0  0  0  0  0  0  0  0
   27.5210  -12.7294    9.6561 H   0  0  0  0  0  0  0  0  0  0  0  0
   26.9902  -15.7623    9.4344 H   0  0  0  0  0  0  0  0  0  0  0  0
   28.4718  -14.9046    8.9390 H   0  0  0  0  0  0  0  0  0  0  0  0
   28.1396  -13.3899    7.2969 H   0  0  0  0  0  0  0  0  0  0  0  0
   29.0421  -13.1828   11.2943 H   0  0  0  0  0  0  0  0  0  0  0  0
   25.5583  -15.6220    7.4209 H   0  0  0  0  0  0  0  0  0  0  0  0
   30.1514  -13.7062   13.4281 H   0  0  0  0  0  0  0  0  0  0  0  0
   30.1052  -16.0047   14.3124 H   0  0  0  0  0  0  0  0  0  0  0  0
   26.6379  -12.5018   12.3868 H   0  0  0  0  0  0  0  0  0  0  0  0
   24.7253  -15.3254   11.5066 H   0  0  0  0  0  0  0  0  0  0  0  0
   27.7949  -17.2363   10.9205 H   0  0  0  0  0  0  0  0  0  0  0  0
   27.8113  -18.1296   14.8609 H   0  0  0  0  0  0  0  0  0  0  0  0
   29.6258  -18.1704   15.0182 H   0  0  0  0  0  0  0  0  0  0  0  0
   27.6740  -20.3692   14.6747 H   0  0  0  0  0  0  0  0  0  0  0  0
   29.3805  -20.4315   15.2452 H   0  0  0  0  0  0  0  0  0  0  0  0
   28.2720  -20.6652   12.4076 H   0  0  0  0  0  0  0  0  0  0  0  0
   29.9358  -20.0351   12.6333 H   0  0  0  0  0  0  0  0  0  0  0  0
   30.1506  -22.1819   14.2296 H   0  0  0  0  0  0  0  0  0  0  0  0
   30.3441  -22.3795   12.4585 H   0  0  0  0  0  0  0  0  0  0  0  0
   28.1407  -23.3309   12.2038 H   0  0  0  0  0  0  0  0  0  0  0  0
   27.5750  -22.6224   13.7424 H   0  0  0  0  0  0  0  0  0  0  0  0
   29.1400  -25.1934   13.3599 H   0  0  0  0  0  0  0  0  0  0  0  0
   29.5823  -24.1474   14.7373 H   0  0  0  0  0  0  0  0  0  0  0  0
   26.6927  -24.2140   14.6760 H   0  0  0  0  0  0  0  0  0  0  0  0
   27.7917  -24.9190   15.9178 H   0  0  0  0  0  0  0  0  0  0  0  0
   26.9843  -26.9306   15.3099 H   0  0  0  0  0  0  0  0  0  0  0  0
   26.2555  -26.2948   13.7871 H   0  0  0  0  0  0  0  0  0  0  0  0
   28.0019  -26.7804   13.8291 H   0  0  0  0  0  0  0  0  0  0  0  0
  3  2  1  0
  3  1  1  0
  5  1  2  0
  3  6  1  0
  6  4  1  0
  7  1  1  0
  8  4  2  0
  9  1  1  0
 10  8  1  0
 11  2  2  0
 12 10  2  0
 13  2  1  0
 14 12  1  0
 15  2  1  0
 16 14  2  0
 16  4  1  0
 17 14  1  0
 18 17  1  0
 19 18  1  0
 20 19  1  0
 21 20  1  0
 22 21  1  0
 23 22  1  0
 24 23  1  0
 25 24  1  0
  3 26  1  0
  6 27  1  0
  6 28  1  0
  7 29  1  0
  8 30  1  0
  9 31  1  0
 10 32  1  0
 12 33  1  0
 13 34  1  0
 15 35  1  0
 16 36  1  0
 18 37  1  0
 18 38  1  0
 19 39  1  0
 19 40  1  0
 20 41  1  0
 20 42  1  0
 21 43  1  0
 21 44  1  0
 22 45  1  0
 22 46  1  0
 23 47  1  0
 23 48  1  0
 24 49  1  0
 24 50  1  0
 25 51  1  0
 25 52  1  0
 25 53  1  0
M  CHG  1   4   1
M  END
