
     RDKit          3D

 20 19  0  0  0  0  0  0  0  0999 V2000
   57.5258   30.1557   48.3105 P   0  0  2  0  0  0  0  0  0  0  0  0
   60.7314   33.2214   47.5159 O   0  0  0  0  0  0  0  0  0  0  0  0
   60.3691   32.8604   46.3677 C   0  0  0  0  0  0  0  0  0  0  0  0
   61.3148   32.3844   45.4801 O   0  0  0  0  0  0  0  0  0  0  0  0
   58.9404   33.0083   45.9319 C   0  0  0  0  0  0  0  0  0  0  0  0
   57.9762   32.4326   46.9438 C   0  0  0  0  0  0  0  0  0  0  0  0
   57.6811   33.0723   47.9409 O   0  0  0  0  0  0  0  0  0  0  0  0
   57.3787   31.0727   46.7581 C   0  0  0  0  0  0  0  0  0  0  0  0
   58.1950   30.9904   49.3759 O   0  0  0  0  0  0  0  0  0  0  0  0
   58.4059   28.7533   48.0443 O   0  0  0  0  0  0  0  0  0  0  0  0
   55.8763   29.6966   48.8247 C   0  0  0  0  0  0  0  0  0  0  0  0
   61.8557   33.0191   44.9047 H   0  0  0  0  0  0  0  0  0  0  0  0
   58.7159   34.0866   45.7897 H   0  0  0  0  0  0  0  0  0  0  0  0
   58.8116   32.5085   44.9481 H   0  0  0  0  0  0  0  0  0  0  0  0
   56.3110   31.1502   46.4625 H   0  0  0  0  0  0  0  0  0  0  0  0
   57.9197   30.5192   45.9621 H   0  0  0  0  0  0  0  0  0  0  0  0
   57.8554   28.2205   47.4164 H   0  0  0  0  0  0  0  0  0  0  0  0
   55.2810   30.6107   49.0274 H   0  0  0  0  0  0  0  0  0  0  0  0
   55.3874   29.1104   48.0197 H   0  0  0  0  0  0  0  0  0  0  0  0
   55.9328   29.0819   49.7466 H   0  0  0  0  0  0  0  0  0  0  0  0
  3  2  2  0
  4  3  1  0
  5  3  1  0
  6  5  1  0
  7  6  2  0
  8  1  1  0
  8  6  1  0
  9  1  2  0
  1 10  1  6
 11  1  1  0
  4 12  1  0
  5 13  1  0
  5 14  1  0
  8 15  1  0
  8 16  1  0
 10 17  1  0
 11 18  1  0
 11 19  1  0
 11 20  1  0
M  END
