
     RDKit          3D

 40 41  0  0  0  0  0  0  0  0999 V2000
   -1.6533   62.3090   36.2630 Cl  0  0  0  0  0  0  0  0  0  0  0  0
   -0.5490   60.6082   34.3905 C   0  0  0  0  0  0  0  0  0  0  0  0
    0.2943   60.3607   33.2850 C   0  0  0  0  0  0  0  0  0  0  0  0
    1.1550   61.3609   32.8135 C   0  0  0  0  0  0  0  0  0  0  0  0
    1.1574   62.6221   33.4173 C   0  0  0  0  0  0  0  0  0  0  0  0
    0.2934   62.8923   34.4759 C   0  0  0  0  0  0  0  0  0  0  0  0
   -0.5519   61.8958   34.9617 C   0  0  0  0  0  0  0  0  0  0  0  0
   -1.3860   59.5915   34.9820 N   0  0  0  0  0  0  0  0  0  0  0  0
   -2.0333   58.4979   34.3229 C   0  0  0  0  0  0  0  0  0  0  0  0
   -3.4297   58.2835   34.4757 C   0  0  0  0  0  0  0  0  0  0  0  0
   -4.0161   57.1467   33.8859 C   0  0  0  0  0  0  0  0  0  0  0  0
   -3.2385   56.2316   33.1854 C   0  0  0  0  0  0  0  0  0  0  0  0
   -1.8657   56.4247   33.0779 C   0  0  0  0  0  0  0  0  0  0  0  0
   -1.2607   57.5388   33.6551 C   0  0  0  0  0  0  0  0  0  0  0  0
   -4.2656   59.1846   35.3023 C   0  0  0  0  0  0  0  0  0  0  0  0
   -5.6824   59.2776   35.1100 N   0  0  0  0  0  0  0  0  0  0  0  0
   -3.7435   59.8270   36.2501 O   0  0  0  0  0  0  0  0  0  0  0  0
   -6.4194   60.1642   35.8373 O   0  0  0  0  0  0  0  0  0  0  0  0
   -7.1723   59.4361   36.7952 C   0  0  0  0  0  0  0  0  0  0  0  0
   -8.2179   58.5502   36.0960 C   0  0  1  0  0  0  0  0  0  0  0  0
   -9.3106   59.4102   35.4520 C   0  0  0  0  0  0  0  0  0  0  0  0
   -7.5947   57.7696   35.1024 O   0  0  0  0  0  0  0  0  0  0  0  0
  -10.0052   58.6585   34.4948 O   0  0  0  0  0  0  0  0  0  0  0  0
    0.0850   57.6749   33.5672 F   0  0  0  0  0  0  0  0  0  0  0  0
   -1.1151   55.5267   32.4036 F   0  0  0  0  0  0  0  0  0  0  0  0
    2.4103   64.1478   32.7063 I   0  0  0  0  0  0  0  0  0  0  0  0
    0.2811   59.4121   32.7699 H   0  0  0  0  0  0  0  0  0  0  0  0
    1.8042   61.1600   31.9711 H   0  0  0  0  0  0  0  0  0  0  0  0
    0.2796   63.8791   34.9213 H   0  0  0  0  0  0  0  0  0  0  0  0
   -1.3850   59.5143   36.0222 H   0  0  0  0  0  0  0  0  0  0  0  0
   -5.0633   56.9142   34.0093 H   0  0  0  0  0  0  0  0  0  0  0  0
   -3.6986   55.3560   32.7450 H   0  0  0  0  0  0  0  0  0  0  0  0
   -6.1835   58.6955   34.4058 H   0  0  0  0  0  0  0  0  0  0  0  0
   -6.5278   58.8222   37.4717 H   0  0  0  0  0  0  0  0  0  0  0  0
   -7.7083   60.1621   37.4432 H   0  0  0  0  0  0  0  0  0  0  0  0
   -8.6946   57.8839   36.8550 H   0  0  0  0  0  0  0  0  0  0  0  0
  -10.0329   59.7338   36.2321 H   0  0  0  0  0  0  0  0  0  0  0  0
   -8.8700   60.3252   34.9907 H   0  0  0  0  0  0  0  0  0  0  0  0
   -6.6250   57.7439   35.3148 H   0  0  0  0  0  0  0  0  0  0  0  0
   -9.6444   57.7344   34.5356 H   0  0  0  0  0  0  0  0  0  0  0  0
  3  2  2  0
  4  3  1  0
  5  4  2  0
  6  5  1  0
  7  6  2  0
  7  2  1  0
  7  1  1  0
  8  2  1  0
  9  8  1  0
 10  9  2  0
 11 10  1  0
 12 11  2  0
 13 12  1  0
 14 13  2  0
 14  9  1  0
 15 10  1  0
 16 15  1  0
 17 15  2  0
 18 16  1  0
 19 18  1  0
 20 19  1  0
 21 20  1  0
 20 22  1  0
 23 21  1  0
 24 14  1  0
 25 13  1  0
 26  5  1  0
  3 27  1  0
  4 28  1  0
  6 29  1  0
  8 30  1  0
 11 31  1  0
 12 32  1  0
 16 33  1  0
 19 34  1  0
 19 35  1  0
 20 36  1  1
 21 37  1  0
 21 38  1  0
 22 39  1  0
 23 40  1  0
M  END
