
     RDKit          3D

 60 62  0  0  0  0  0  0  0  0999 V2000
   -0.0280    2.9476   51.1251 P   0  0  2  0  0  0  0  0  0  0  0  0
   -1.8005    5.0038   51.7202 P   0  0  2  0  0  0  0  0  0  0  0  0
   -6.1917    2.0831   51.4171 C   0  0  0  0  0  0  0  0  0  0  0  0
   -5.2436    1.0768   51.6667 O   0  0  0  0  0  0  0  0  0  0  0  0
   -5.5566    3.4932   51.3879 C   0  0  1  0  0  0  0  0  0  0  0  0
   -4.5697    3.5602   50.3541 O   0  0  0  0  0  0  0  0  0  0  0  0
   -6.6681    4.5618   51.1592 C   0  0  1  0  0  0  0  0  0  0  0  0
   -7.6279    4.5453   52.1908 O   0  0  0  0  0  0  0  0  0  0  0  0
   -6.0519    5.9702   51.0001 C   0  0  2  0  0  0  0  0  0  0  0  0
   -7.0467    6.9117   50.6871 O   0  0  0  0  0  0  0  0  0  0  0  0
   -4.9762    5.9139   49.8845 C   0  0  1  0  0  0  0  0  0  0  0  0
   -4.3197    7.1527   49.7688 O   0  0  0  0  0  0  0  0  0  0  0  0
   -3.9486    4.8481   50.2805 C   0  0  1  0  0  0  0  0  0  0  0  0
    2.1399    2.2944   46.7312 C   0  0  1  0  0  0  0  0  0  0  0  0
    3.1396    3.4026   46.6725 N   0  0  0  0  0  0  0  0  0  0  0  0
    0.1060    1.4853   51.4670 O   0  0  0  0  0  0  0  0  0  0  0  0
   -1.0062    5.8692   50.7670 O   0  0  0  0  0  0  0  0  0  0  0  0
    3.7959    3.6729   45.4875 C   0  0  0  0  0  0  0  0  0  0  0  0
    2.3008    1.2828   47.8720 C   0  0  2  0  0  0  0  0  0  0  0  0
    3.6501    2.9266   44.4807 O   0  0  0  0  0  0  0  0  0  0  0  0
    1.0671    3.8594   52.0082 O   0  0  0  0  0  0  0  0  0  0  0  0
   -1.4620    5.3905   53.3169 O   0  0  0  0  0  0  0  0  0  0  0  0
    3.3166    0.3324   47.6516 O   0  0  0  0  0  0  0  0  0  0  0  0
    0.9084    0.6621   47.8856 C   0  0  2  0  0  0  0  0  0  0  0  0
    4.6070    4.7601   45.3747 N   0  0  0  0  0  0  0  0  0  0  0  0
   -1.6211    3.3525   51.4699 O   0  0  0  0  0  0  0  0  0  0  0  0
   -3.4508    5.2513   51.5444 O   0  0  0  0  0  0  0  0  0  0  0  0
    0.7778   -0.3386   46.8981 O   0  0  0  0  0  0  0  0  0  0  0  0
    4.7925    5.6142   46.4107 C   0  0  0  0  0  0  0  0  0  0  0  0
    0.0259    1.8536   47.4846 C   0  0  2  0  0  0  0  0  0  0  0  0
    5.5388    6.6182   46.2673 O   0  0  0  0  0  0  0  0  0  0  0  0
    0.8319    2.8181   46.8278 O   0  0  0  0  0  0  0  0  0  0  0  0
    4.1479    5.3796   47.6226 C   0  0  0  0  0  0  0  0  0  0  0  0
   -0.6605    2.5070   48.6929 C   0  0  0  0  0  0  0  0  0  0  0  0
    0.3088    3.1627   49.4797 O   0  0  0  0  0  0  0  0  0  0  0  0
    3.3094    4.2623   47.7317 C   0  0  0  0  0  0  0  0  0  0  0  0
   -6.9919    2.0344   52.1899 H   0  0  0  0  0  0  0  0  0  0  0  0
   -6.6664    1.8763   50.4341 H   0  0  0  0  0  0  0  0  0  0  0  0
   -5.7530    0.2335   51.7881 H   0  0  0  0  0  0  0  0  0  0  0  0
   -5.0825    3.6567   52.3823 H   0  0  0  0  0  0  0  0  0  0  0  0
   -7.1948    4.3150   50.2102 H   0  0  0  0  0  0  0  0  0  0  0  0
   -7.1540    4.7499   53.0389 H   0  0  0  0  0  0  0  0  0  0  0  0
   -5.5750    6.2741   51.9622 H   0  0  0  0  0  0  0  0  0  0  0  0
   -6.8712    7.2253   49.7614 H   0  0  0  0  0  0  0  0  0  0  0  0
   -5.4560    5.6402   48.9151 H   0  0  0  0  0  0  0  0  0  0  0  0
   -3.3847    7.0107   50.0714 H   0  0  0  0  0  0  0  0  0  0  0  0
   -3.1678    4.8135   49.4858 H   0  0  0  0  0  0  0  0  0  0  0  0
    2.1630    1.7138   45.7817 H   0  0  0  0  0  0  0  0  0  0  0  0
    2.4908    1.7964   48.8378 H   0  0  0  0  0  0  0  0  0  0  0  0
    0.8821    3.6318   52.9542 H   0  0  0  0  0  0  0  0  0  0  0  0
   -0.7503    4.7560   53.5850 H   0  0  0  0  0  0  0  0  0  0  0  0
    3.2564    0.0046   46.7172 H   0  0  0  0  0  0  0  0  0  0  0  0
    0.6531    0.2591   48.8941 H   0  0  0  0  0  0  0  0  0  0  0  0
    5.0922    4.9459   44.4667 H   0  0  0  0  0  0  0  0  0  0  0  0
    1.0818   -1.1878   47.3124 H   0  0  0  0  0  0  0  0  0  0  0  0
   -0.7718    1.5179   46.7845 H   0  0  0  0  0  0  0  0  0  0  0  0
    4.2731    6.0548   48.4601 H   0  0  0  0  0  0  0  0  0  0  0  0
   -1.2492    1.7214   49.2238 H   0  0  0  0  0  0  0  0  0  0  0  0
   -1.3826    3.2667   48.3243 H   0  0  0  0  0  0  0  0  0  0  0  0
    2.7737    4.1056   48.6587 H   0  0  0  0  0  0  0  0  0  0  0  0
  4  3  1  0
  5  3  1  0
  6  5  1  0
  7  5  1  0
  7  8  1  0
  9  7  1  0
  9 10  1  0
 11  9  1  0
 11 12  1  0
 13  6  1  0
 13 11  1  0
 14 15  1  0
 16  1  2  0
 17  2  2  0
 18 15  1  0
 19 14  1  0
 20 18  2  0
  1 21  1  1
  2 22  1  1
 19 23  1  0
 24 19  1  0
 25 18  1  0
 26  2  1  0
 26  1  1  0
 13 27  1  0
 27  2  1  0
 24 28  1  0
 29 25  1  0
 30 24  1  0
 31 29  2  0
 32 30  1  0
 32 14  1  0
 33 29  1  0
 30 34  1  0
 35 34  1  0
 35  1  1  0
 36 15  1  0
 36 33  2  0
  3 37  1  0
  3 38  1  0
  4 39  1  0
  5 40  1  1
  7 41  1  6
  8 42  1  0
  9 43  1  1
 10 44  1  0
 11 45  1  6
 12 46  1  0
 13 47  1  6
 14 48  1  6
 19 49  1  1
 21 50  1  0
 22 51  1  0
 23 52  1  0
 24 53  1  1
 25 54  1  0
 28 55  1  0
 30 56  1  6
 33 57  1  0
 34 58  1  0
 34 59  1  0
 36 60  1  0
M  END
