
     RDKit          3D

 41 43  0  0  0  0  0  0  0  0999 V2000
  -64.8613   82.1314   86.6014 N   0  0  0  0  0  0  0  0  0  0  0  0
  -63.8459   83.1753   84.7251 N   0  0  0  0  0  0  0  0  0  0  0  0
  -66.1005   81.0020   88.3065 N   0  0  0  0  0  0  0  0  0  0  0  0
  -59.8191   82.7966   79.1177 N   0  0  0  0  0  0  0  0  0  0  0  0
  -70.7579   80.0848   85.5216 N   0  0  0  0  0  0  0  0  0  0  0  0
  -66.7179   80.9532   85.8973 C   0  0  0  0  0  0  0  0  0  0  0  0
  -65.9023   81.3540   86.9485 C   0  0  0  0  0  0  0  0  0  0  0  0
  -64.8352   82.3465   85.2842 C   0  0  0  0  0  0  0  0  0  0  0  0
  -63.0059   82.8518   83.6285 C   0  0  0  0  0  0  0  0  0  0  0  0
  -67.8847   80.0870   85.9752 C   0  0  0  0  0  0  0  0  0  0  0  0
  -68.4721   79.5473   84.7549 C   0  0  0  0  0  0  0  0  0  0  0  0
  -69.8670   79.5397   84.5548 C   0  0  0  0  0  0  0  0  0  0  0  0
  -70.3955   78.9722   83.3863 C   0  0  0  0  0  0  0  0  0  0  0  0
  -69.5446   78.4354   82.4182 C   0  0  0  0  0  0  0  0  0  0  0  0
  -68.1607   78.4517   82.6138 C   0  0  0  0  0  0  0  0  0  0  0  0
  -67.6246   79.0026   83.7786 C   0  0  0  0  0  0  0  0  0  0  0  0
  -62.8654   83.6697   82.4866 C   0  0  0  0  0  0  0  0  0  0  0  0
  -62.0500   83.2719   81.4410 C   0  0  0  0  0  0  0  0  0  0  0  0
  -61.4335   82.0250   81.4770 C   0  0  0  0  0  0  0  0  0  0  0  0
  -61.5281   81.2250   82.6290 C   0  0  0  0  0  0  0  0  0  0  0  0
  -62.3221   81.6349   83.6926 C   0  0  0  0  0  0  0  0  0  0  0  0
  -68.3881   79.7858   87.0849 O   0  0  0  0  0  0  0  0  0  0  0  0
  -60.0202   80.1275   79.9996 O   0  0  0  0  0  0  0  0  0  0  0  0
  -59.3093   81.5781   80.8060 O   0  0  0  0  0  0  0  0  0  0  0  0
  -71.9322   79.4298   85.7868 O   0  0  0  0  0  0  0  0  0  0  0  0
  -70.5201   81.1804   86.0731 O   0  0  0  0  0  0  0  0  0  0  0  0
  -66.1405   81.6477   84.4818 S   0  0  0  0  0  0  0  0  0  0  0  0
  -60.4354   81.5401   80.1260 S   0  0  0  0  0  0  0  0  0  0  0  0
  -63.6238   84.0399   85.2708 H   0  0  0  0  0  0  0  0  0  0  0  0
  -65.5142   81.4598   89.0393 H   0  0  0  0  0  0  0  0  0  0  0  0
  -66.6952   80.2077   88.6180 H   0  0  0  0  0  0  0  0  0  0  0  0
  -59.8219   83.6950   79.6529 H   0  0  0  0  0  0  0  0  0  0  0  0
  -60.5002   82.9131   78.3346 H   0  0  0  0  0  0  0  0  0  0  0  0
  -71.4649   78.9575   83.2175 H   0  0  0  0  0  0  0  0  0  0  0  0
  -69.9572   78.0051   81.5148 H   0  0  0  0  0  0  0  0  0  0  0  0
  -67.5041   78.0320   81.8627 H   0  0  0  0  0  0  0  0  0  0  0  0
  -66.5506   78.9946   83.9223 H   0  0  0  0  0  0  0  0  0  0  0  0
  -63.4191   84.5689   82.3206 H   0  0  0  0  0  0  0  0  0  0  0  0
  -61.9761   83.9008   80.5633 H   0  0  0  0  0  0  0  0  0  0  0  0
  -61.0101   80.2758   82.6828 H   0  0  0  0  0  0  0  0  0  0  0  0
  -62.4076   80.9937   84.5615 H   0  0  0  0  0  0  0  0  0  0  0  0
  7  6  2  0
  7  3  1  0
  7  1  1  0
  8  1  2  0
  8  2  1  0
  9  2  1  0
 10  6  1  0
 11 10  1  0
 12 11  2  0
 12  5  1  0
 13 12  1  0
 14 13  2  0
 15 14  1  0
 16 15  2  0
 16 11  1  0
 17  9  2  0
 18 17  1  0
 19 18  2  0
 20 19  1  0
 21 20  2  0
 21  9  1  0
 22 10  2  0
 25  5  1  0
 26  5  2  0
 27  6  1  0
 27  8  1  0
 28  4  1  0
 28 24  2  0
 28 19  1  0
 28 23  2  0
  2 29  1  0
  3 30  1  0
  3 31  1  0
  4 32  1  0
  4 33  1  0
 13 34  1  0
 14 35  1  0
 15 36  1  0
 16 37  1  0
 17 38  1  0
 18 39  1  0
 20 40  1  0
 21 41  1  0
M  CHG  2   5   1  25  -1
M  END
