
     RDKit          3D

 71 76  0  0  0  0  0  0  0  0999 V2000
    2.0251   48.0753   32.2536 P   0  0  2  0  0  0  0  0  0  0  0  0
    2.9489   50.0653   30.4232 P   0  0  1  0  0  0  0  0  0  0  0  0
    4.3978   48.5979   28.8572 C   0  0  0  0  0  0  0  0  0  0  0  0
    4.1994   48.9161   30.2184 O   0  0  0  0  0  0  0  0  0  0  0  0
    5.9039   48.4496   28.6164 C   0  0  1  0  0  0  0  0  0  0  0  0
    6.1228   47.7515   27.4058 O   0  0  0  0  0  0  0  0  0  0  0  0
    6.5915   49.8300   28.5382 C   0  0  1  0  0  0  0  0  0  0  0  0
    7.6835   49.8911   29.4214 O   0  0  0  0  0  0  0  0  0  0  0  0
    7.0456   49.8768   27.0962 C   0  0  1  0  0  0  0  0  0  0  0  0
    8.2213   50.6185   26.8928 O   0  0  0  0  0  0  0  0  0  0  0  0
    7.1956   48.3955   26.7722 C   0  0  2  0  0  0  0  0  0  0  0  0
    8.8916   45.2985   23.0175 N   0  0  0  0  0  0  0  0  0  0  0  0
    1.7386   47.0552   31.1542 O   0  0  0  0  0  0  0  0  0  0  0  0
    3.5712   51.3926   30.8433 O   0  0  0  0  0  0  0  0  0  0  0  0
    9.2482   45.3165   24.3451 C   0  0  0  0  0  0  0  0  0  0  0  0
   10.1921   44.3685   24.8364 N   0  0  0  0  0  0  0  0  0  0  0  0
    3.5009   47.7600   33.0259 O   0  0  0  0  0  0  0  0  0  0  0  0
    1.9814   50.2762   29.0411 O   0  0  0  0  0  0  0  0  0  0  0  0
    8.7040   46.2404   25.1991 N   0  0  0  0  0  0  0  0  0  0  0  0
    0.8336   48.0666   33.4728 O   0  0  0  0  0  0  0  0  0  0  0  0
    1.9428   49.6813   31.7245 O   0  0  0  0  0  0  0  0  0  0  0  0
    7.8095   47.1252   24.6917 C   0  0  0  0  0  0  0  0  0  0  0  0
    7.4351   47.1146   23.3933 C   0  0  0  0  0  0  0  0  0  0  0  0
    7.9810   46.1855   22.5208 C   0  0  0  0  0  0  0  0  0  0  0  0
    7.6515   46.1540   21.3073 O   0  0  0  0  0  0  0  0  0  0  0  0
    6.5210   48.0720   23.1556 N   0  0  0  0  0  0  0  0  0  0  0  0
    6.3709   48.6546   24.3758 C   0  0  0  0  0  0  0  0  0  0  0  0
    7.1656   48.1092   25.3369 N   0  0  0  0  0  0  0  0  0  0  0  0
   -0.3849   47.5847   32.9672 C   0  0  0  0  0  0  0  0  0  0  0  0
   -1.2467   47.2325   34.1846 C   0  0  1  0  0  0  0  0  0  0  0  0
   -0.8292   48.0354   35.2793 O   0  0  0  0  0  0  0  0  0  0  0  0
   -2.7333   47.3959   33.9197 C   0  0  0  0  0  0  0  0  0  0  0  0
   -3.4337   46.8343   32.3556 S   0  0  0  0  0  0  0  0  0  0  0  0
   -3.5534   47.8025   34.9106 C   0  0  0  0  0  0  0  0  0  0  0  0
   -5.3180   48.0054   34.6296 S   0  0  0  0  0  0  0  0  0  0  0  0
   -3.0354   48.0284   36.3033 C   0  0  2  0  0  0  0  0  0  0  0  0
   -3.3387   49.3871   36.7804 N   0  0  0  0  0  0  0  0  0  0  0  0
   -2.8034   49.8124   37.8895 C   0  0  0  0  0  0  0  0  0  0  0  0
   -3.4506   50.7947   38.7585 C   0  0  0  0  0  0  0  0  0  0  0  0
   -4.5212   51.3598   38.4264 O   0  0  0  0  0  0  0  0  0  0  0  0
   -2.8854   51.0392   40.0491 N   0  0  0  0  0  0  0  0  0  0  0  0
   -1.8077   50.4215   40.4486 C   0  0  0  0  0  0  0  0  0  0  0  0
   -1.2653   50.6932   41.7363 N   0  0  0  0  0  0  0  0  0  0  0  0
   -1.1530   49.4692   39.6025 N   0  0  0  0  0  0  0  0  0  0  0  0
   -1.6056   49.1668   38.4232 C   0  0  0  0  0  0  0  0  0  0  0  0
   -0.9199   48.2181   37.6166 N   0  0  0  0  0  0  0  0  0  0  0  0
   -1.5397   47.6377   36.4315 C   0  0  2  0  0  0  0  0  0  0  0  0
    3.8952   47.6285   28.6507 H   0  0  0  0  0  0  0  0  0  0  0  0
    4.0070   49.3464   28.1332 H   0  0  0  0  0  0  0  0  0  0  0  0
    6.3376   47.8438   29.4445 H   0  0  0  0  0  0  0  0  0  0  0  0
    5.8993   50.6820   28.7413 H   0  0  0  0  0  0  0  0  0  0  0  0
    7.3021   50.0128   30.3299 H   0  0  0  0  0  0  0  0  0  0  0  0
    6.2299   50.3362   26.5008 H   0  0  0  0  0  0  0  0  0  0  0  0
    8.9997   50.0084   26.9757 H   0  0  0  0  0  0  0  0  0  0  0  0
    8.1476   48.0039   27.2020 H   0  0  0  0  0  0  0  0  0  0  0  0
    9.3167   44.5896   22.3776 H   0  0  0  0  0  0  0  0  0  0  0  0
   10.6171   43.6580   24.2003 H   0  0  0  0  0  0  0  0  0  0  0  0
   10.4693   44.3752   25.8430 H   0  0  0  0  0  0  0  0  0  0  0  0
    3.5378   48.4091   33.7731 H   0  0  0  0  0  0  0  0  0  0  0  0
    1.1690   49.7342   29.2070 H   0  0  0  0  0  0  0  0  0  0  0  0
    5.6600   49.4493   24.5511 H   0  0  0  0  0  0  0  0  0  0  0  0
   -0.2198   46.6884   32.3373 H   0  0  0  0  0  0  0  0  0  0  0  0
   -0.8870   48.3662   32.3548 H   0  0  0  0  0  0  0  0  0  0  0  0
   -1.0755   46.1509   34.4020 H   0  0  0  0  0  0  0  0  0  0  0  0
   -3.3327   48.1180   31.7871 H   0  0  0  0  0  0  0  0  0  0  0  0
   -5.1514   49.3347   34.1980 H   0  0  0  0  0  0  0  0  0  0  0  0
   -3.5970   47.3261   36.9596 H   0  0  0  0  0  0  0  0  0  0  0  0
   -0.4022   50.2020   42.0584 H   0  0  0  0  0  0  0  0  0  0  0  0
   -1.7236   51.3846   42.3707 H   0  0  0  0  0  0  0  0  0  0  0  0
    0.0301   47.8890   37.9021 H   0  0  0  0  0  0  0  0  0  0  0  0
   -1.4804   46.5302   36.5645 H   0  0  0  0  0  0  0  0  0  0  0  0
  4  3  1  0
  2  4  1  6
  5  3  1  0
  6  5  1  0
  7  5  1  0
  7  8  1  0
  9  7  1  0
  9 10  1  0
 11  9  1  0
 11  6  1  0
 13  1  2  0
 14  2  2  0
 15 12  1  0
 16 15  1  0
  1 17  1  1
 18  2  1  0
 19 15  2  0
 20  1  1  0
 21  2  1  0
 21  1  1  0
 22 19  1  0
 23 22  2  0
 24 23  1  0
 24 12  1  0
 25 24  2  0
 26 23  1  0
 27 26  2  0
 28 27  1  0
 28 22  1  0
 11 28  1  0
 29 20  1  0
 30 29  1  0
 31 30  1  0
 32 30  1  0
 33 32  1  0
 34 32  2  0
 35 34  1  0
 36 34  1  0
 36 37  1  0
 38 37  2  0
 39 38  1  0
 40 39  2  0
 41 39  1  0
 42 41  2  0
 43 42  1  0
 44 42  1  0
 45 38  1  0
 45 44  2  0
 46 45  1  0
 47 46  1  0
 47 36  1  0
 47 31  1  0
  3 48  1  0
  3 49  1  0
  5 50  1  1
  7 51  1  1
  8 52  1  0
  9 53  1  6
 10 54  1  0
 11 55  1  1
 12 56  1  0
 16 57  1  0
 16 58  1  0
 17 59  1  0
 18 60  1  0
 27 61  1  0
 29 62  1  0
 29 63  1  0
 30 64  1  1
 33 65  1  0
 35 66  1  0
 36 67  1  1
 43 68  1  0
 43 69  1  0
 46 70  1  0
 47 71  1  1
M  END
