
     RDKit          3D

 73 77  0  0  0  0  0  0  0  0999 V2000
   35.4449   21.2710   41.6306 P   0  0  1  0  0  0  0  0  0  0  0  0
   36.0529   18.7608   40.5564 P   0  0  2  0  0  0  0  0  0  0  0  0
   32.7423   25.9980   40.1496 C   0  0  1  0  0  0  0  0  0  0  0  0
   33.8256   16.5437   36.7163 C   0  0  1  0  0  0  0  0  0  0  0  0
   31.3712   29.1836   36.3790 N   0  0  0  0  0  0  0  0  0  0  0  0
   33.8474   15.2295   37.3721 N   0  0  0  0  0  0  0  0  0  0  0  0
   34.4614   21.7970   42.8875 O   0  0  0  0  0  0  0  0  0  0  0  0
   36.1533   17.4164   41.5412 O   0  0  0  0  0  0  0  0  0  0  0  0
   32.5659   29.0940   37.0458 C   0  0  0  0  0  0  0  0  0  0  0  0
   32.2650   25.3548   41.4449 C   0  0  2  0  0  0  0  0  0  0  0  0
   32.9156   17.5496   37.4147 C   0  0  2  0  0  0  0  0  0  0  0  0
   34.3446   15.0847   38.7128 C   0  0  0  0  0  0  0  0  0  0  0  0
   36.8841   21.2394   42.0919 O   0  0  0  0  0  0  0  0  0  0  0  0
   31.8883   26.2862   42.4327 O   0  0  0  0  0  0  0  0  0  0  0  0
   31.5683   17.4050   37.0465 O   0  0  0  0  0  0  0  0  0  0  0  0
   37.4321   19.3536   40.3890 O   0  0  0  0  0  0  0  0  0  0  0  0
   33.4609   24.5016   41.8250 C   0  0  2  0  0  0  0  0  0  0  0  0
   33.5042   18.8553   36.9197 C   0  0  2  0  0  0  0  0  0  0  0  0
   34.4286   13.8709   39.2839 C   0  0  0  0  0  0  0  0  0  0  0  0
   32.7429   28.1822   38.0442 N   0  0  0  0  0  0  0  0  0  0  0  0
   34.8765   19.7363   41.2744 O   0  0  0  0  0  0  0  0  0  0  0  0
   34.3534   25.1814   42.6784 O   0  0  0  0  0  0  0  0  0  0  0  0
   32.9504   19.2329   35.6728 O   0  0  0  0  0  0  0  0  0  0  0  0
   31.6970   27.3771   38.3470 C   0  0  0  0  0  0  0  0  0  0  0  0
   34.1283   24.2498   40.4555 C   0  0  2  0  0  0  0  0  0  0  0  0
   35.0027   18.5104   36.7896 C   0  0  2  0  0  0  0  0  0  0  0  0
   34.3118   12.6343   38.4342 C   0  0  0  0  0  0  0  0  0  0  0  0
   33.4892   25.0303   39.4707 O   0  0  0  0  0  0  0  0  0  0  0  0
   35.1246   17.0970   36.6756 O   0  0  0  0  0  0  0  0  0  0  0  0
   30.5092   27.4303   37.6977 C   0  0  0  0  0  0  0  0  0  0  0  0
   34.0554   22.7814   40.0478 C   0  0  0  0  0  0  0  0  0  0  0  0
   35.8316   18.9851   37.9985 C   0  0  0  0  0  0  0  0  0  0  0  0
   33.5666   12.8555   37.1590 C   0  0  0  0  0  0  0  0  0  0  0  0
   35.3376   22.2365   40.2439 O   0  0  0  0  0  0  0  0  0  0  0  0
   35.3923   18.2360   39.0965 O   0  0  0  0  0  0  0  0  0  0  0  0
   30.3221   28.3679   36.6828 C   0  0  0  0  0  0  0  0  0  0  0  0
   33.3725   14.0742   36.6621 C   0  0  0  0  0  0  0  0  0  0  0  0
   29.0900   28.5031   35.9840 N   0  0  0  0  0  0  0  0  0  0  0  0
   34.7708   13.6862   40.7150 C   0  0  0  0  0  0  0  0  0  0  0  0
   29.6603   26.5047   38.1925 N   0  0  0  0  0  0  0  0  0  0  0  0
   35.1742   14.7707   41.5348 N   0  0  0  0  0  0  0  0  0  0  0  0
   34.6917   12.5421   41.2316 O   0  0  0  0  0  0  0  0  0  0  0  0
   30.4022   25.9030   39.1627 C   0  0  0  0  0  0  0  0  0  0  0  0
   31.6448   26.4378   39.2958 N   0  0  0  0  0  0  0  0  0  0  0  0
   33.4105   26.8614   40.3764 H   0  0  0  0  0  0  0  0  0  0  0  0
   33.4831   16.4206   35.6632 H   0  0  0  0  0  0  0  0  0  0  0  0
   34.6130   21.1466   43.6189 H   0  0  0  0  0  0  0  0  0  0  0  0
   36.4413   17.7675   42.4214 H   0  0  0  0  0  0  0  0  0  0  0  0
   33.3779   29.7555   36.7773 H   0  0  0  0  0  0  0  0  0  0  0  0
   31.4051   24.6783   41.2521 H   0  0  0  0  0  0  0  0  0  0  0  0
   33.0118   17.5015   38.5225 H   0  0  0  0  0  0  0  0  0  0  0  0
   34.5447   15.9636   39.2958 H   0  0  0  0  0  0  0  0  0  0  0  0
   32.6002   26.9737   42.5055 H   0  0  0  0  0  0  0  0  0  0  0  0
   31.2467   16.5760   37.4877 H   0  0  0  0  0  0  0  0  0  0  0  0
   33.1136   23.5641   42.3135 H   0  0  0  0  0  0  0  0  0  0  0  0
   33.3184   19.6709   37.6529 H   0  0  0  0  0  0  0  0  0  0  0  0
   34.0030   25.0767   43.6015 H   0  0  0  0  0  0  0  0  0  0  0  0
   32.7944   18.4202   35.1257 H   0  0  0  0  0  0  0  0  0  0  0  0
   35.2003   24.5518   40.4891 H   0  0  0  0  0  0  0  0  0  0  0  0
   35.4249   18.9880   35.8780 H   0  0  0  0  0  0  0  0  0  0  0  0
   35.3315   12.2675   38.1908 H   0  0  0  0  0  0  0  0  0  0  0  0
   33.7811   11.8358   38.9951 H   0  0  0  0  0  0  0  0  0  0  0  0
   33.8217   22.7280   38.9637 H   0  0  0  0  0  0  0  0  0  0  0  0
   33.2207   22.2703   40.5756 H   0  0  0  0  0  0  0  0  0  0  0  0
   36.9071   18.7781   37.8039 H   0  0  0  0  0  0  0  0  0  0  0  0
   35.6834   20.0747   38.1573 H   0  0  0  0  0  0  0  0  0  0  0  0
   33.2317   11.9945   36.5939 H   0  0  0  0  0  0  0  0  0  0  0  0
   32.8706   14.1825   35.7082 H   0  0  0  0  0  0  0  0  0  0  0  0
   28.3211   29.0986   36.3644 H   0  0  0  0  0  0  0  0  0  0  0  0
   28.9412   28.0050   35.0785 H   0  0  0  0  0  0  0  0  0  0  0  0
   34.6203   15.6525   41.4960 H   0  0  0  0  0  0  0  0  0  0  0  0
   35.7144   14.5841   42.4088 H   0  0  0  0  0  0  0  0  0  0  0  0
   30.0363   25.0696   39.7473 H   0  0  0  0  0  0  0  0  0  0  0  0
  4  6  1  0
  1  7  1  1
  2  8  1  1
  9  5  2  0
 10  3  1  0
 11  4  1  0
 12  6  1  0
 13  1  2  0
 10 14  1  0
 11 15  1  0
 16  2  2  0
 17 10  1  0
 18 11  1  0
 19 12  2  0
 20  9  1  0
 21  2  1  0
 21  1  1  0
 17 22  1  0
 18 23  1  0
 24 20  2  0
 25 17  1  0
 26 18  1  0
 27 19  1  0
 28 25  1  0
 28  3  1  0
 29 26  1  0
 29  4  1  0
 30 24  1  0
 25 31  1  0
 26 32  1  0
 33 27  1  0
 34  1  1  0
 34 31  1  0
 35 32  1  0
 35  2  1  0
 36  5  1  0
 36 30  2  0
 37 33  2  0
 37  6  1  0
 38 36  1  0
 39 19  1  0
 40 30  1  0
 41 39  1  0
 42 39  2  0
 43 40  2  0
 44 43  1  0
 44 24  1  0
  3 44  1  0
  3 45  1  1
  4 46  1  6
  7 47  1  0
  8 48  1  0
  9 49  1  0
 10 50  1  6
 11 51  1  1
 12 52  1  0
 14 53  1  0
 15 54  1  0
 17 55  1  1
 18 56  1  1
 22 57  1  0
 23 58  1  0
 25 59  1  1
 26 60  1  6
 27 61  1  0
 27 62  1  0
 31 63  1  0
 31 64  1  0
 32 65  1  0
 32 66  1  0
 33 67  1  0
 37 68  1  0
 38 69  1  0
 38 70  1  0
 41 71  1  0
 41 72  1  0
 43 73  1  0
M  END
