
     RDKit          3D

 15 16  0  0  0  0  0  0  0  0999 V2000
   11.2284   23.4672    6.6102 N   0  0  0  0  0  0  0  0  0  0  0  0
   11.4587   22.3893    7.4293 C   0  0  0  0  0  0  0  0  0  0  0  0
   11.9201   21.2111    6.9165 N   0  0  0  0  0  0  0  0  0  0  0  0
   12.1667   21.1587    5.5875 C   0  0  0  0  0  0  0  0  0  0  0  0
   11.9682   22.2135    4.7608 C   0  0  0  0  0  0  0  0  0  0  0  0
   11.4577   23.4043    5.2715 C   0  0  0  0  0  0  0  0  0  0  0  0
   11.1415   24.5109    4.4342 N   0  0  0  0  0  0  0  0  0  0  0  0
   12.2884   21.8765    3.4971 N   0  0  0  0  0  0  0  0  0  0  0  0
   12.6751   20.5761    3.6219 C   0  0  0  0  0  0  0  0  0  0  0  0
   12.6065   20.1075    4.8913 N   0  0  0  0  0  0  0  0  0  0  0  0
   11.2597   22.4702    8.4890 H   0  0  0  0  0  0  0  0  0  0  0  0
   11.4746   25.4728    4.6672 H   0  0  0  0  0  0  0  0  0  0  0  0
   10.5682   24.3711    3.5729 H   0  0  0  0  0  0  0  0  0  0  0  0
   13.0039   19.9744    2.7850 H   0  0  0  0  0  0  0  0  0  0  0  0
   12.8449   19.1529    5.2405 H   0  0  0  0  0  0  0  0  0  0  0  0
  2  1  2  0
  3  2  1  0
  4  3  2  0
  5  4  1  0
  6  5  2  0
  6  1  1  0
  7  6  1  0
  8  5  1  0
  9  8  2  0
 10  9  1  0
 10  4  1  0
  2 11  1  0
  7 12  1  0
  7 13  1  0
  9 14  1  0
 10 15  1  0
M  END
