
     RDKit          3D

 38 40  0  0  0  0  0  0  0  0999 V2000
   35.3133   47.6029   -0.3826 P   0  0  0  0  0  0  0  0  0  0  0  0
   34.0591   47.6159   -1.2201 O   0  0  0  0  0  0  0  0  0  0  0  0
   36.5152   48.4927   -1.1449 O   0  0  0  0  0  0  0  0  0  0  0  0
   34.9799   48.3198    1.0895 O   0  0  0  0  0  0  0  0  0  0  0  0
   36.9329   45.9159    0.6947 C   0  0  0  0  0  0  0  0  0  0  0  0
   35.8049   45.9929   -0.1512 O   0  0  0  0  0  0  0  0  0  0  0  0
   37.7699   47.1990    0.5814 C   0  0  1  0  0  0  0  0  0  0  0  0
   38.3701   47.4801    1.8277 O   0  0  0  0  0  0  0  0  0  0  0  0
   38.8977   47.0964   -0.4509 C   0  0  1  0  0  0  0  0  0  0  0  0
   38.5149   47.3798   -1.7735 O   0  0  0  0  0  0  0  0  0  0  0  0
   39.9055   48.0682    0.0869 C   0  0  1  0  0  0  0  0  0  0  0  0
   39.5825   49.3964   -0.2471 O   0  0  0  0  0  0  0  0  0  0  0  0
   39.7120   47.8475    1.5798 C   0  0  2  0  0  0  0  0  0  0  0  0
   44.5521   47.0296    2.8614 N   0  0  0  0  0  0  0  0  0  0  0  0
   43.9565   48.1416    2.3161 C   0  0  0  0  0  0  0  0  0  0  0  0
   44.7143   49.3241    2.0909 N   0  0  0  0  0  0  0  0  0  0  0  0
   42.6309   48.1229    1.9968 N   0  0  0  0  0  0  0  0  0  0  0  0
   41.9358   46.9819    2.2163 C   0  0  0  0  0  0  0  0  0  0  0  0
   42.4916   45.8681    2.7289 C   0  0  0  0  0  0  0  0  0  0  0  0
   43.8356   45.8828    3.0846 C   0  0  0  0  0  0  0  0  0  0  0  0
   44.3811   44.8768    3.6068 O   0  0  0  0  0  0  0  0  0  0  0  0
   41.5617   44.8980    2.8665 N   0  0  0  0  0  0  0  0  0  0  0  0
   40.4214   45.5095    2.4238 C   0  0  0  0  0  0  0  0  0  0  0  0
   40.6312   46.7987    2.0331 N   0  0  0  0  0  0  0  0  0  0  0  0
   36.8905   47.8785   -1.8252 H   0  0  0  0  0  0  0  0  0  0  0  0
   34.7831   49.2659    0.8730 H   0  0  0  0  0  0  0  0  0  0  0  0
   37.5745   45.0179    0.5378 H   0  0  0  0  0  0  0  0  0  0  0  0
   36.5580   45.8407    1.7376 H   0  0  0  0  0  0  0  0  0  0  0  0
   37.0913   48.0466    0.3351 H   0  0  0  0  0  0  0  0  0  0  0  0
   39.3580   46.0842   -0.4191 H   0  0  0  0  0  0  0  0  0  0  0  0
   38.2493   46.5309   -2.2132 H   0  0  0  0  0  0  0  0  0  0  0  0
   40.9379   47.8163   -0.2542 H   0  0  0  0  0  0  0  0  0  0  0  0
   40.2840   49.7115   -0.8749 H   0  0  0  0  0  0  0  0  0  0  0  0
   39.9297   48.7858    2.1373 H   0  0  0  0  0  0  0  0  0  0  0  0
   45.5656   47.0580    3.1155 H   0  0  0  0  0  0  0  0  0  0  0  0
   44.2612   50.1704    1.6800 H   0  0  0  0  0  0  0  0  0  0  0  0
   45.7296   49.3611    2.3315 H   0  0  0  0  0  0  0  0  0  0  0  0
   39.4543   45.0267    2.4176 H   0  0  0  0  0  0  0  0  0  0  0  0
  2  1  2  0
  3  1  1  0
  4  1  1  0
  6  5  1  0
  6  1  1  0
  7  5  1  0
  8  7  1  0
  9  7  1  0
  9 10  1  0
 11  9  1  0
 11 12  1  0
 13 11  1  0
 13  8  1  0
 15 14  1  0
 16 15  1  0
 17 15  2  0
 18 17  1  0
 19 18  2  0
 20 19  1  0
 20 14  1  0
 21 20  2  0
 22 19  1  0
 23 22  2  0
 24 23  1  0
 24 18  1  0
 13 24  1  0
  3 25  1  0
  4 26  1  0
  5 27  1  0
  5 28  1  0
  7 29  1  6
  9 30  1  6
 10 31  1  0
 11 32  1  6
 12 33  1  0
 13 34  1  1
 14 35  1  0
 16 36  1  0
 16 37  1  0
 23 38  1  0
M  END
