
     RDKit          3D

 50 51  0  0  0  0  0  0  0  0999 V2000
  -25.3984  -67.0051   15.9792 P   0  0  1  0  0  0  0  0  0  0  0  0
  -24.7207  -68.8884   14.0193 P   0  0  0  0  0  0  0  0  0  0  0  0
  -26.8984  -65.6965   25.3400 C   0  0  0  0  0  0  0  0  0  0  0  0
  -26.1431  -66.8701   25.0961 C   0  0  0  0  0  0  0  0  0  0  0  0
  -24.8270  -66.8812   25.6187 C   0  0  0  0  0  0  0  0  0  0  0  0
  -23.9647  -67.9901   25.4534 N   0  0  0  0  0  0  0  0  0  0  0  0
  -24.3871  -72.1177   23.6881 C   0  0  0  0  0  0  0  0  0  0  0  0
  -24.3304  -65.7988   26.2720 N   0  0  0  0  0  0  0  0  0  0  0  0
  -25.0556  -64.6727   26.4497 C   0  0  0  0  0  0  0  0  0  0  0  0
  -24.9761  -70.5089   25.3046 O   0  0  0  0  0  0  0  0  0  0  0  0
  -24.9044  -70.7380   24.0599 C   0  0  0  0  0  0  0  0  0  0  0  0
  -26.3422  -64.6268   25.9948 N   0  0  0  0  0  0  0  0  0  0  0  0
  -25.4048  -70.0886   21.3269 S   0  0  0  0  0  0  0  0  0  0  0  0
  -25.4325  -69.7234   22.9832 C   0  0  0  0  0  0  0  0  0  0  0  0
  -24.4274  -63.5171   27.1684 C   0  0  0  0  0  0  0  0  0  0  0  0
  -26.1325  -68.5150   23.1530 N   0  0  0  0  0  0  0  0  0  0  0  0
  -26.5266  -67.9432   21.9365 C   0  0  0  0  0  0  0  0  0  0  0  0
  -27.5725  -66.8437   21.8172 C   0  0  0  0  0  0  0  0  0  0  0  0
  -26.1005  -68.6448   20.7861 C   0  0  0  0  0  0  0  0  0  0  0  0
  -26.6519  -68.4819   19.3733 C   0  0  0  0  0  0  0  0  0  0  0  0
  -25.7849  -67.6097   18.4527 C   0  0  0  0  0  0  0  0  0  0  0  0
  -26.4714  -67.4056   17.2314 O   0  0  0  0  0  0  0  0  0  0  0  0
  -24.4579  -68.3465   15.5911 O   0  0  0  0  0  0  0  0  0  0  0  0
  -26.1594  -66.4734   14.7827 O   0  0  0  0  0  0  0  0  0  0  0  0
  -24.3005  -65.8425   16.4971 O   0  0  0  0  0  0  0  0  0  0  0  0
  -23.3913  -69.4487   13.5721 O   0  0  0  0  0  0  0  0  0  0  0  0
  -25.8866  -70.0966   14.0345 O   0  0  0  0  0  0  0  0  0  0  0  0
  -25.2036  -67.6756   12.9661 O   0  0  0  0  0  0  0  0  0  0  0  0
  -26.7700  -68.1064   24.4368 C   0  0  0  0  0  0  0  0  0  0  0  0
  -27.9275  -65.6332   25.0120 H   0  0  0  0  0  0  0  0  0  0  0  0
  -23.7856  -68.3478   24.4930 H   0  0  0  0  0  0  0  0  0  0  0  0
  -23.2175  -68.1670   26.1611 H   0  0  0  0  0  0  0  0  0  0  0  0
  -25.2307  -72.7440   23.3310 H   0  0  0  0  0  0  0  0  0  0  0  0
  -23.9127  -72.6120   24.5629 H   0  0  0  0  0  0  0  0  0  0  0  0
  -23.6303  -72.0291   22.8814 H   0  0  0  0  0  0  0  0  0  0  0  0
  -23.4912  -63.8455   27.6668 H   0  0  0  0  0  0  0  0  0  0  0  0
  -25.1326  -63.1283   27.9322 H   0  0  0  0  0  0  0  0  0  0  0  0
  -24.1848  -62.7045   26.4515 H   0  0  0  0  0  0  0  0  0  0  0  0
  -27.4721  -66.1187   22.6460 H   0  0  0  0  0  0  0  0  0  0  0  0
  -28.5888  -67.2892   21.8338 H   0  0  0  0  0  0  0  0  0  0  0  0
  -27.4345  -66.2676   20.8788 H   0  0  0  0  0  0  0  0  0  0  0  0
  -26.7443  -69.4882   18.9128 H   0  0  0  0  0  0  0  0  0  0  0  0
  -27.6823  -68.0705   19.4106 H   0  0  0  0  0  0  0  0  0  0  0  0
  -24.8134  -68.1368   18.3087 H   0  0  0  0  0  0  0  0  0  0  0  0
  -25.6016  -66.6271   18.9394 H   0  0  0  0  0  0  0  0  0  0  0  0
  -23.8303  -65.5418   15.6789 H   0  0  0  0  0  0  0  0  0  0  0  0
  -25.5998  -70.7327   13.3323 H   0  0  0  0  0  0  0  0  0  0  0  0
  -24.3807  -67.1582   12.7751 H   0  0  0  0  0  0  0  0  0  0  0  0
  -27.8551  -67.9347   24.2696 H   0  0  0  0  0  0  0  0  0  0  0  0
  -26.7529  -68.9344   25.1686 H   0  0  0  0  0  0  0  0  0  0  0  0
  4  3  2  0
  5  4  1  0
  6  5  1  0
  8  5  2  0
  9  8  1  0
 11  7  1  0
 11 10  2  0
 12  3  1  0
 12  9  2  0
 14 13  1  0
 14 11  1  0
 15  9  1  0
 16 14  2  0
 17 16  1  0
 18 17  1  0
 19 17  2  0
 19 13  1  0
 20 19  1  0
 21 20  1  0
  1 22  1  1
 22 21  1  0
 23  2  1  0
 23  1  1  0
 24  1  2  0
 25  1  1  0
 26  2  2  0
 27  2  1  0
 28  2  1  0
 29 16  1  0
 29  4  1  0
  3 30  1  0
  6 31  1  0
  6 32  1  0
  7 33  1  0
  7 34  1  0
  7 35  1  0
 15 36  1  0
 15 37  1  0
 15 38  1  0
 18 39  1  0
 18 40  1  0
 18 41  1  0
 20 42  1  0
 20 43  1  0
 21 44  1  0
 21 45  1  0
 25 46  1  0
 27 47  1  0
 28 48  1  0
 29 49  1  0
 29 50  1  0
M  CHG  1  16   1
M  END
