
     RDKit          3D

 38 37  0  0  0  0  0  0  0  0999 V2000
   -5.0612    1.7161   13.2493 C   0  0  0  0  0  0  0  0  0  0  0  0
   -4.1071   -0.5274   15.1497 N   0  0  0  0  0  0  0  0  0  0  0  0
   -5.8831    1.0854   16.2447 O   0  0  0  0  0  0  0  0  0  0  0  0
   -4.4981    1.0615   15.6710 S   0  0  0  0  0  0  0  0  0  0  0  0
   -6.3560    2.5124   13.0663 C   0  0  0  0  0  0  0  0  0  0  0  0
   -3.4988    1.4788   16.7054 O   0  0  0  0  0  0  0  0  0  0  0  0
   -6.1658    4.0388   13.1173 C   0  0  0  0  0  0  0  0  0  0  0  0
   -4.3753    2.1588   14.4010 O   0  0  0  0  0  0  0  0  0  0  0  0
   -5.1246    4.4874   14.1505 C   0  0  0  0  0  0  0  0  0  0  0  0
   -3.9218    5.1348   13.4525 C   0  0  0  0  0  0  0  0  0  0  0  0
   -2.9007    5.6580   14.4635 C   0  0  0  0  0  0  0  0  0  0  0  0
   -3.2953    7.0452   14.9875 C   0  0  0  0  0  0  0  0  0  0  0  0
   -2.3112    8.1112   14.4882 C   0  0  0  0  0  0  0  0  0  0  0  0
   -2.6530    9.5239   14.9866 C   0  0  0  0  0  0  0  0  0  0  0  0
   -2.0794    9.8222   16.3663 C   0  0  0  0  0  0  0  0  0  0  0  0
   -4.4056    1.8841   12.3700 H   0  0  0  0  0  0  0  0  0  0  0  0
   -5.3040    0.6323   13.2464 H   0  0  0  0  0  0  0  0  0  0  0  0
   -4.7574   -0.7706   14.3690 H   0  0  0  0  0  0  0  0  0  0  0  0
   -4.3397   -1.1761   15.9348 H   0  0  0  0  0  0  0  0  0  0  0  0
   -6.8344    2.2237   12.1051 H   0  0  0  0  0  0  0  0  0  0  0  0
   -7.0560    2.2220   13.8796 H   0  0  0  0  0  0  0  0  0  0  0  0
   -5.8239    4.3706   12.1123 H   0  0  0  0  0  0  0  0  0  0  0  0
   -7.1383    4.5413   13.3100 H   0  0  0  0  0  0  0  0  0  0  0  0
   -4.7832    3.6097   14.7420 H   0  0  0  0  0  0  0  0  0  0  0  0
   -5.5842    5.2258   14.8419 H   0  0  0  0  0  0  0  0  0  0  0  0
   -3.4325    4.3869   12.7901 H   0  0  0  0  0  0  0  0  0  0  0  0
   -4.2771    5.9816   12.8241 H   0  0  0  0  0  0  0  0  0  0  0  0
   -2.8410    4.9488   15.3188 H   0  0  0  0  0  0  0  0  0  0  0  0
   -1.8997    5.7136   13.9814 H   0  0  0  0  0  0  0  0  0  0  0  0
   -3.2967    7.0470   16.0994 H   0  0  0  0  0  0  0  0  0  0  0  0
   -4.3233    7.2780   14.6326 H   0  0  0  0  0  0  0  0  0  0  0  0
   -1.2717    7.8354   14.7724 H   0  0  0  0  0  0  0  0  0  0  0  0
   -2.3517    8.1352   13.3765 H   0  0  0  0  0  0  0  0  0  0  0  0
   -2.2207   10.2620   14.2761 H   0  0  0  0  0  0  0  0  0  0  0  0
   -3.7528    9.6852   14.9948 H   0  0  0  0  0  0  0  0  0  0  0  0
   -2.3472   10.8575   16.6655 H   0  0  0  0  0  0  0  0  0  0  0  0
   -2.4963    9.1170   17.1159 H   0  0  0  0  0  0  0  0  0  0  0  0
   -0.9724    9.7312   16.3530 H   0  0  0  0  0  0  0  0  0  0  0  0
  4  3  2  0
  4  2  1  0
  5  1  1  0
  6  4  2  0
  7  5  1  0
  8  4  1  0
  8  1  1  0
  9  7  1  0
 10  9  1  0
 11 10  1  0
 12 11  1  0
 13 12  1  0
 14 13  1  0
 15 14  1  0
  1 16  1  0
  1 17  1  0
  2 18  1  0
  2 19  1  0
  5 20  1  0
  5 21  1  0
  7 22  1  0
  7 23  1  0
  9 24  1  0
  9 25  1  0
 10 26  1  0
 10 27  1  0
 11 28  1  0
 11 29  1  0
 12 30  1  0
 12 31  1  0
 13 32  1  0
 13 33  1  0
 14 34  1  0
 14 35  1  0
 15 36  1  0
 15 37  1  0
 15 38  1  0
M  END
