
     RDKit          3D

 24 25  0  0  0  0  0  0  0  0999 V2000
   24.9416   10.2475   25.4072 Cl  0  0  0  0  0  0  0  0  0  0  0  0
   19.0665    9.9677   17.0526 Cl  0  0  0  0  0  0  0  0  0  0  0  0
   22.0827    5.7359   18.6460 Cl  0  0  0  0  0  0  0  0  0  0  0  0
   22.7513    9.0462   24.3076 C   0  0  0  0  0  0  0  0  0  0  0  0
   24.1163    9.3235   24.1706 C   0  0  0  0  0  0  0  0  0  0  0  0
   24.8259    8.8679   23.0521 C   0  0  0  0  0  0  0  0  0  0  0  0
   24.1764    8.1170   22.0763 C   0  0  0  0  0  0  0  0  0  0  0  0
   22.8179    7.8314   22.2244 C   0  0  0  0  0  0  0  0  0  0  0  0
   22.0941    8.3031   23.3293 C   0  0  0  0  0  0  0  0  0  0  0  0
   22.1592    7.1479   21.2269 O   0  0  0  0  0  0  0  0  0  0  0  0
   21.3983    7.8245   20.2852 C   0  0  0  0  0  0  0  0  0  0  0  0
   21.2880    7.2628   19.0110 C   0  0  0  0  0  0  0  0  0  0  0  0
   20.5710    7.9280   18.0220 C   0  0  0  0  0  0  0  0  0  0  0  0
   19.9559    9.1470   18.3110 C   0  0  0  0  0  0  0  0  0  0  0  0
   20.0461    9.7076   19.5884 C   0  0  0  0  0  0  0  0  0  0  0  0
   20.7644    9.0519   20.5793 C   0  0  0  0  0  0  0  0  0  0  0  0
   20.7284    8.0477   23.4527 O   0  0  0  0  0  0  0  0  0  0  0  0
   22.2050    9.4103   25.1687 H   0  0  0  0  0  0  0  0  0  0  0  0
   25.8795    9.0921   22.9452 H   0  0  0  0  0  0  0  0  0  0  0  0
   24.7192    7.7683   21.2070 H   0  0  0  0  0  0  0  0  0  0  0  0
   20.4931    7.5013   17.0297 H   0  0  0  0  0  0  0  0  0  0  0  0
   19.5636   10.6520   19.8065 H   0  0  0  0  0  0  0  0  0  0  0  0
   20.8271    9.5091   21.5575 H   0  0  0  0  0  0  0  0  0  0  0  0
   20.3592    7.3807   24.1195 H   0  0  0  0  0  0  0  0  0  0  0  0
  5  4  2  0
  5  1  1  0
  6  5  1  0
  7  6  2  0
  8  7  1  0
  9  8  2  0
  9  4  1  0
 10  8  1  0
 11 10  1  0
 12 11  2  0
 12  3  1  0
 13 12  1  0
 14 13  2  0
 14  2  1  0
 15 14  1  0
 16 11  1  0
 16 15  2  0
 17  9  1  0
  4 18  1  0
  6 19  1  0
  7 20  1  0
 13 21  1  0
 15 22  1  0
 16 23  1  0
 17 24  1  0
M  END
