
     RDKit          3D

 24 25  0  0  0  0  0  0  0  0999 V2000
   11.2542   -0.2966   54.3390 Cl  0  0  0  0  0  0  0  0  0  0  0  0
   14.3517    1.5165   63.9921 Cl  0  0  0  0  0  0  0  0  0  0  0  0
   17.8178   -0.2218   60.1419 Cl  0  0  0  0  0  0  0  0  0  0  0  0
   13.3296    1.0759   55.4603 C   0  0  0  0  0  0  0  0  0  0  0  0
   12.5411   -0.0792   55.5022 C   0  0  0  0  0  0  0  0  0  0  0  0
   12.7757   -1.0662   56.4648 C   0  0  0  0  0  0  0  0  0  0  0  0
   13.8060   -0.9055   57.3843 C   0  0  0  0  0  0  0  0  0  0  0  0
   14.5997    0.2427   57.3405 C   0  0  0  0  0  0  0  0  0  0  0  0
   14.3606    1.2471   56.3830 C   0  0  0  0  0  0  0  0  0  0  0  0
   15.5895    0.4074   58.2937 O   0  0  0  0  0  0  0  0  0  0  0  0
   15.2806    0.6759   59.6253 C   0  0  0  0  0  0  0  0  0  0  0  0
   16.2525    0.4263   60.6051 C   0  0  0  0  0  0  0  0  0  0  0  0
   15.9755    0.6926   61.9489 C   0  0  0  0  0  0  0  0  0  0  0  0
   14.7230    1.1992   62.3109 C   0  0  0  0  0  0  0  0  0  0  0  0
   13.7508    1.4446   61.3390 C   0  0  0  0  0  0  0  0  0  0  0  0
   14.0217    1.1858   60.0014 C   0  0  0  0  0  0  0  0  0  0  0  0
   15.1269    2.4115   56.3468 O   0  0  0  0  0  0  0  0  0  0  0  0
   13.1379    1.8387   54.7160 H   0  0  0  0  0  0  0  0  0  0  0  0
   12.1604   -1.9565   56.4965 H   0  0  0  0  0  0  0  0  0  0  0  0
   13.9854   -1.6654   58.1343 H   0  0  0  0  0  0  0  0  0  0  0  0
   16.7244    0.5007   62.7070 H   0  0  0  0  0  0  0  0  0  0  0  0
   12.7819    1.8352   61.6239 H   0  0  0  0  0  0  0  0  0  0  0  0
   13.2487    1.3884   59.2724 H   0  0  0  0  0  0  0  0  0  0  0  0
   16.1252    2.4037   56.5178 H   0  0  0  0  0  0  0  0  0  0  0  0
  5  1  1  0
  5  4  2  0
  6  5  1  0
  7  6  2  0
  8  7  1  0
  9  8  2  0
  9  4  1  0
 10  8  1  0
 11 10  1  0
 12 11  2  0
 12  3  1  0
 13 12  1  0
 14 13  2  0
 14  2  1  0
 15 14  1  0
 16 11  1  0
 16 15  2  0
 17  9  1  0
  4 18  1  0
  6 19  1  0
  7 20  1  0
 13 21  1  0
 15 22  1  0
 16 23  1  0
 17 24  1  0
M  END
