
     RDKit          3D

 42 44  0  0  0  0  0  0  0  0999 V2000
   53.6969   -0.4747   22.2288 P   0  0  0  0  0  0  0  0  0  0  0  0
   49.7129   -1.7323   15.9486 P   0  0  0  0  0  0  0  0  0  0  0  0
   54.9459    0.3546   22.4181 O   0  0  0  0  0  0  0  0  0  0  0  0
   53.8369   -1.9262   23.0564 O   0  0  0  0  0  0  0  0  0  0  0  0
   52.3694    0.3818   22.7845 O   0  0  0  0  0  0  0  0  0  0  0  0
   48.3768   -2.0858   16.5591 O   0  0  0  0  0  0  0  0  0  0  0  0
   49.5196   -0.5789   14.7464 O   0  0  0  0  0  0  0  0  0  0  0  0
   50.4758   -3.0860   15.3155 O   0  0  0  0  0  0  0  0  0  0  0  0
   51.1083   -1.8819   18.0880 C   0  0  0  0  0  0  0  0  0  0  0  0
   50.6949   -0.9893   17.0897 O   0  0  0  0  0  0  0  0  0  0  0  0
   51.7511   -0.9891   19.1479 C   0  0  1  0  0  0  0  0  0  0  0  0
   50.7376   -0.2557   19.8246 O   0  0  0  0  0  0  0  0  0  0  0  0
   52.6034   -1.7113   20.1921 C   0  0  1  0  0  0  0  0  0  0  0  0
   53.5342   -0.7137   20.5731 O   0  0  0  0  0  0  0  0  0  0  0  0
   51.5402   -1.9278   21.2572 C   0  0  1  0  0  0  0  0  0  0  0  0
   52.0529   -2.2238   22.5270 O   0  0  0  0  0  0  0  0  0  0  0  0
   50.8533   -0.5716   21.1938 C   0  0  2  0  0  0  0  0  0  0  0  0
   47.8158    1.8923   24.5454 N   0  0  0  0  0  0  0  0  0  0  0  0
   49.1033    2.1801   24.1785 C   0  0  0  0  0  0  0  0  0  0  0  0
   49.7548    1.4005   23.2637 N   0  0  0  0  0  0  0  0  0  0  0  0
   49.0918    0.3400   22.7350 C   0  0  0  0  0  0  0  0  0  0  0  0
   47.8183    0.0379   23.0716 C   0  0  0  0  0  0  0  0  0  0  0  0
   47.1460    0.8290   24.0093 C   0  0  0  0  0  0  0  0  0  0  0  0
   45.8095    0.5493   24.4114 N   0  0  0  0  0  0  0  0  0  0  0  0
   47.4015   -1.0513   22.3901 N   0  0  0  0  0  0  0  0  0  0  0  0
   48.4880   -1.3823   21.6375 C   0  0  0  0  0  0  0  0  0  0  0  0
   49.5439   -0.5541   21.8415 N   0  0  0  0  0  0  0  0  0  0  0  0
   54.0408   -2.5973   22.3570 H   0  0  0  0  0  0  0  0  0  0  0  0
   52.7404    1.2380   23.1173 H   0  0  0  0  0  0  0  0  0  0  0  0
   50.4249   -0.2013   14.6092 H   0  0  0  0  0  0  0  0  0  0  0  0
   49.8735   -3.4033   14.5962 H   0  0  0  0  0  0  0  0  0  0  0  0
   51.8624   -2.5882   17.6757 H   0  0  0  0  0  0  0  0  0  0  0  0
   50.2521   -2.4401   18.5310 H   0  0  0  0  0  0  0  0  0  0  0  0
   52.3992   -0.2623   18.6010 H   0  0  0  0  0  0  0  0  0  0  0  0
   53.0687   -2.6480   19.8114 H   0  0  0  0  0  0  0  0  0  0  0  0
   50.8575   -2.7472   20.9307 H   0  0  0  0  0  0  0  0  0  0  0  0
   52.1789   -1.3542   22.9885 H   0  0  0  0  0  0  0  0  0  0  0  0
   51.4996    0.1961   21.6803 H   0  0  0  0  0  0  0  0  0  0  0  0
   49.6091    3.0293   24.6168 H   0  0  0  0  0  0  0  0  0  0  0  0
   45.4219    0.9442   25.2970 H   0  0  0  0  0  0  0  0  0  0  0  0
   45.1992   -0.0580   23.8207 H   0  0  0  0  0  0  0  0  0  0  0  0
   48.4977   -2.2138   20.9452 H   0  0  0  0  0  0  0  0  0  0  0  0
  3  1  2  0
  4  1  1  0
  5  1  1  0
  6  2  2  0
  7  2  1  0
  8  2  1  0
 10  2  1  0
 10  9  1  0
 11  9  1  0
 12 11  1  0
 13 11  1  0
 13 14  1  0
 14  1  1  0
 15 13  1  0
 15 16  1  0
 17 15  1  0
 17 12  1  0
 19 18  2  0
 20 19  1  0
 21 20  2  0
 22 21  1  0
 23 22  2  0
 23 18  1  0
 24 23  1  0
 25 22  1  0
 26 25  2  0
 27 26  1  0
 17 27  1  0
 27 21  1  0
  4 28  1  0
  5 29  1  0
  7 30  1  0
  8 31  1  0
  9 32  1  0
  9 33  1  0
 11 34  1  6
 13 35  1  6
 15 36  1  6
 16 37  1  0
 17 38  1  1
 19 39  1  0
 24 40  1  0
 24 41  1  0
 26 42  1  0
M  END
