
     RDKit          3D

 55 57  0  0  0  0  0  0  0  0999 V2000
    3.3169  -10.7344   29.3587 C   0  0  0  0  0  0  0  0  0  0  0  0
    2.3772   -9.2919   31.1997 C   0  0  0  0  0  0  0  0  0  0  0  0
    1.0862  -11.2688   30.3285 C   0  0  0  0  0  0  0  0  0  0  0  0
    2.5407  -11.7475   33.0091 C   0  0  0  0  0  0  0  0  0  0  0  0
    3.2357  -11.6508   31.6893 C   0  0  2  0  0  0  0  0  0  0  0  0
    1.5074  -12.7065   33.1116 N   0  0  0  0  0  0  0  0  0  0  0  0
    2.8503  -11.0052   33.9851 O   0  0  0  0  0  0  0  0  0  0  0  0
   -0.3818  -13.9991   34.3432 O   0  0  0  0  0  0  0  0  0  0  0  0
    1.8037  -13.7132   35.4721 O   0  0  0  0  0  0  0  0  0  0  0  0
    4.5838  -11.2975   31.8657 O   0  0  0  0  0  0  0  0  0  0  0  0
    2.5009  -10.7347   30.6633 C   0  0  0  0  0  0  0  0  0  0  0  0
    0.7733  -13.0784   34.5941 S   0  0  0  0  0  0  0  0  0  0  0  0
   -0.6943  -11.0285   34.5973 C   0  0  0  0  0  0  0  0  0  0  0  0
    0.2532  -11.7081   35.3711 O   0  0  0  0  0  0  0  0  0  0  0  0
   -0.9256   -9.6785   35.2819 C   0  0  1  0  0  0  0  0  0  0  0  0
   -1.5120   -9.9062   36.5561 O   0  0  0  0  0  0  0  0  0  0  0  0
    0.4025   -8.9125   35.4901 C   0  0  1  0  0  0  0  0  0  0  0  0
    0.1953   -7.5398   35.2608 O   0  0  0  0  0  0  0  0  0  0  0  0
    0.6759   -9.1710   36.9574 C   0  0  1  0  0  0  0  0  0  0  0  0
    1.4684   -8.1794   37.5546 O   0  0  0  0  0  0  0  0  0  0  0  0
   -0.7438   -9.1809   37.4908 C   0  0  2  0  0  0  0  0  0  0  0  0
   -1.8965   -8.5406   42.4811 N   0  0  0  0  0  0  0  0  0  0  0  0
   -1.9800   -7.6286   41.4638 C   0  0  0  0  0  0  0  0  0  0  0  0
   -1.6296   -7.9779   40.1894 N   0  0  0  0  0  0  0  0  0  0  0  0
   -1.1982   -9.2463   39.9699 C   0  0  0  0  0  0  0  0  0  0  0  0
   -1.1060  -10.1630   40.9585 C   0  0  0  0  0  0  0  0  0  0  0  0
   -1.4583   -9.8127   42.2574 C   0  0  0  0  0  0  0  0  0  0  0  0
   -1.3736  -10.7386   43.3316 N   0  0  0  0  0  0  0  0  0  0  0  0
   -0.6607  -11.3396   40.4729 N   0  0  0  0  0  0  0  0  0  0  0  0
   -0.4970  -11.0807   39.1472 C   0  0  0  0  0  0  0  0  0  0  0  0
   -0.8165   -9.8040   38.8115 N   0  0  0  0  0  0  0  0  0  0  0  0
    3.4265  -11.7661   28.9591 H   0  0  0  0  0  0  0  0  0  0  0  0
    4.3314  -10.3108   29.5202 H   0  0  0  0  0  0  0  0  0  0  0  0
    2.8172  -10.1144   28.5829 H   0  0  0  0  0  0  0  0  0  0  0  0
    1.8086   -9.2642   32.1532 H   0  0  0  0  0  0  0  0  0  0  0  0
    3.3716   -8.8267   31.3599 H   0  0  0  0  0  0  0  0  0  0  0  0
    1.8333   -8.6565   30.4676 H   0  0  0  0  0  0  0  0  0  0  0  0
    1.1413  -12.2967   29.9098 H   0  0  0  0  0  0  0  0  0  0  0  0
    0.4407  -11.2832   31.2307 H   0  0  0  0  0  0  0  0  0  0  0  0
    0.5873  -10.6174   29.5785 H   0  0  0  0  0  0  0  0  0  0  0  0
    3.2536  -12.6767   31.2581 H   0  0  0  0  0  0  0  0  0  0  0  0
    1.2567  -13.3046   32.2931 H   0  0  0  0  0  0  0  0  0  0  0  0
    5.1475  -11.9165   31.3348 H   0  0  0  0  0  0  0  0  0  0  0  0
   -0.3254  -10.8430   33.5641 H   0  0  0  0  0  0  0  0  0  0  0  0
   -1.6497  -11.5970   34.5602 H   0  0  0  0  0  0  0  0  0  0  0  0
   -1.6284   -9.0825   34.6582 H   0  0  0  0  0  0  0  0  0  0  0  0
    1.2255   -9.2921   34.8447 H   0  0  0  0  0  0  0  0  0  0  0  0
    1.0913   -7.1331   35.1289 H   0  0  0  0  0  0  0  0  0  0  0  0
    1.1642  -10.1645   37.0804 H   0  0  0  0  0  0  0  0  0  0  0  0
    0.9870   -7.3206   37.4285 H   0  0  0  0  0  0  0  0  0  0  0  0
   -1.1393   -8.1396   37.5490 H   0  0  0  0  0  0  0  0  0  0  0  0
   -2.3287   -6.6259   41.6689 H   0  0  0  0  0  0  0  0  0  0  0  0
   -1.3050  -11.7624   43.1384 H   0  0  0  0  0  0  0  0  0  0  0  0
   -1.3790  -10.4133   44.3240 H   0  0  0  0  0  0  0  0  0  0  0  0
   -0.1473  -11.8198   38.4378 H   0  0  0  0  0  0  0  0  0  0  0  0
  5  4  1  0
  6  4  1  0
  7  4  2  0
  5 10  1  0
 11  5  1  0
 11  3  1  0
 11  2  1  0
 11  1  1  0
 12  6  1  0
 12  9  2  0
 12  8  2  0
 14 12  1  0
 14 13  1  0
 15 13  1  0
 16 15  1  0
 17 15  1  0
 17 18  1  0
 19 17  1  0
 19 20  1  0
 21 19  1  0
 21 16  1  0
 23 22  2  0
 24 23  1  0
 25 24  2  0
 26 25  1  0
 27 26  2  0
 27 22  1  0
 28 27  1  0
 29 26  1  0
 30 29  2  0
 21 31  1  0
 31 30  1  0
 31 25  1  0
  1 32  1  0
  1 33  1  0
  1 34  1  0
  2 35  1  0
  2 36  1  0
  2 37  1  0
  3 38  1  0
  3 39  1  0
  3 40  1  0
  5 41  1  6
  6 42  1  0
 10 43  1  0
 13 44  1  0
 13 45  1  0
 15 46  1  6
 17 47  1  6
 18 48  1  0
 19 49  1  6
 20 50  1  0
 21 51  1  1
 23 52  1  0
 28 53  1  0
 28 54  1  0
 30 55  1  0
M  END
