
     RDKit          3D

 55 57  0  0  0  0  0  0  0  0999 V2000
    2.2547  -10.5077   29.7928 C   0  0  0  0  0  0  0  0  0  0  0  0
    4.2358   -8.9791   29.4901 C   0  0  0  0  0  0  0  0  0  0  0  0
    2.5303   -8.5340   31.2865 C   0  0  0  0  0  0  0  0  0  0  0  0
    3.4495  -10.7282   32.8295 C   0  0  0  0  0  0  0  0  0  0  0  0
    4.0957  -10.5652   31.4915 C   0  0  2  0  0  0  0  0  0  0  0  0
    2.4521  -11.7244   32.9336 N   0  0  0  0  0  0  0  0  0  0  0  0
    3.7678  -10.0081   33.8192 O   0  0  0  0  0  0  0  0  0  0  0  0
    0.6490  -13.1193   34.1825 O   0  0  0  0  0  0  0  0  0  0  0  0
    2.8612  -12.7968   35.2478 O   0  0  0  0  0  0  0  0  0  0  0  0
    5.4367  -10.1727   31.6352 O   0  0  0  0  0  0  0  0  0  0  0  0
    3.2969   -9.6414   30.5217 C   0  0  0  0  0  0  0  0  0  0  0  0
    1.7814  -12.1688   34.4261 S   0  0  0  0  0  0  0  0  0  0  0  0
    0.2487  -10.1707   34.5467 C   0  0  0  0  0  0  0  0  0  0  0  0
    1.2437  -10.8429   35.2656 O   0  0  0  0  0  0  0  0  0  0  0  0
   -0.0030   -8.8523   35.2836 C   0  0  1  0  0  0  0  0  0  0  0  0
   -0.5379   -9.1410   36.5681 O   0  0  0  0  0  0  0  0  0  0  0  0
    1.3058   -8.0491   35.4737 C   0  0  1  0  0  0  0  0  0  0  0  0
    1.0463   -6.6775   35.2977 O   0  0  0  0  0  0  0  0  0  0  0  0
    1.6373   -8.3460   36.9217 C   0  0  1  0  0  0  0  0  0  0  0  0
    2.4170   -7.3483   37.5255 O   0  0  0  0  0  0  0  0  0  0  0  0
    0.2377   -8.4211   37.5008 C   0  0  2  0  0  0  0  0  0  0  0  0
   -0.7648   -7.9828   42.5452 N   0  0  0  0  0  0  0  0  0  0  0  0
   -0.9125   -7.0416   41.5625 C   0  0  0  0  0  0  0  0  0  0  0  0
   -0.5944   -7.3371   40.2663 N   0  0  0  0  0  0  0  0  0  0  0  0
   -0.1298   -8.5825   39.9900 C   0  0  0  0  0  0  0  0  0  0  0  0
    0.0259   -9.5272   40.9436 C   0  0  0  0  0  0  0  0  0  0  0  0
   -0.2932   -9.2315   42.2644 C   0  0  0  0  0  0  0  0  0  0  0  0
   -0.1419  -10.1885   43.3035 N   0  0  0  0  0  0  0  0  0  0  0  0
    0.4925  -10.6718   40.4042 N   0  0  0  0  0  0  0  0  0  0  0  0
    0.6025  -10.3645   39.0833 C   0  0  0  0  0  0  0  0  0  0  0  0
    0.2303   -9.0889   38.8015 N   0  0  0  0  0  0  0  0  0  0  0  0
    1.5727  -11.0023   30.5183 H   0  0  0  0  0  0  0  0  0  0  0  0
    2.7449  -11.2939   29.1795 H   0  0  0  0  0  0  0  0  0  0  0  0
    1.6383   -9.8868   29.1069 H   0  0  0  0  0  0  0  0  0  0  0  0
    5.0122   -8.3622   29.9901 H   0  0  0  0  0  0  0  0  0  0  0  0
    4.7343   -9.7322   28.8456 H   0  0  0  0  0  0  0  0  0  0  0  0
    3.6560   -8.3081   28.8200 H   0  0  0  0  0  0  0  0  0  0  0  0
    1.8210   -8.9780   32.0176 H   0  0  0  0  0  0  0  0  0  0  0  0
    3.2302   -7.8641   31.8271 H   0  0  0  0  0  0  0  0  0  0  0  0
    1.9481   -7.9008   30.5823 H   0  0  0  0  0  0  0  0  0  0  0  0
    4.1322  -11.5754   31.0256 H   0  0  0  0  0  0  0  0  0  0  0  0
    2.1932  -12.3036   32.1042 H   0  0  0  0  0  0  0  0  0  0  0  0
    5.7593  -10.4611   32.5270 H   0  0  0  0  0  0  0  0  0  0  0  0
    0.5760   -9.9393   33.5088 H   0  0  0  0  0  0  0  0  0  0  0  0
   -0.6884  -10.7696   34.5220 H   0  0  0  0  0  0  0  0  0  0  0  0
   -0.7456   -8.2604   34.7039 H   0  0  0  0  0  0  0  0  0  0  0  0
    2.1183   -8.3797   34.7891 H   0  0  0  0  0  0  0  0  0  0  0  0
    0.2137   -6.4769   35.7999 H   0  0  0  0  0  0  0  0  0  0  0  0
    2.1616   -9.3260   36.9949 H   0  0  0  0  0  0  0  0  0  0  0  0
    2.5579   -7.6321   38.4662 H   0  0  0  0  0  0  0  0  0  0  0  0
   -0.1894   -7.3961   37.6071 H   0  0  0  0  0  0  0  0  0  0  0  0
   -1.2865   -6.0584   41.8126 H   0  0  0  0  0  0  0  0  0  0  0  0
   -0.9225  -10.3630   43.9746 H   0  0  0  0  0  0  0  0  0  0  0  0
    0.7453  -10.7285   43.4126 H   0  0  0  0  0  0  0  0  0  0  0  0
    0.9517  -11.0679   38.3383 H   0  0  0  0  0  0  0  0  0  0  0  0
  5  4  1  0
  6  4  1  0
  7  4  2  0
  5 10  1  0
 11  5  1  0
 11  3  1  0
 11  2  1  0
 11  1  1  0
 12  6  1  0
 12  9  2  0
 12  8  2  0
 14 12  1  0
 14 13  1  0
 15 13  1  0
 16 15  1  0
 17 15  1  0
 17 18  1  0
 19 17  1  0
 19 20  1  0
 21 19  1  0
 21 16  1  0
 23 22  2  0
 24 23  1  0
 25 24  2  0
 26 25  1  0
 27 26  2  0
 27 22  1  0
 28 27  1  0
 29 26  1  0
 30 29  2  0
 21 31  1  0
 31 30  1  0
 31 25  1  0
  1 32  1  0
  1 33  1  0
  1 34  1  0
  2 35  1  0
  2 36  1  0
  2 37  1  0
  3 38  1  0
  3 39  1  0
  3 40  1  0
  5 41  1  6
  6 42  1  0
 10 43  1  0
 13 44  1  0
 13 45  1  0
 15 46  1  6
 17 47  1  6
 18 48  1  0
 19 49  1  6
 20 50  1  0
 21 51  1  1
 23 52  1  0
 28 53  1  0
 28 54  1  0
 30 55  1  0
M  END
