
     RDKit          3D

 23 22  0  0  0  0  0  0  0  0999 V2000
   15.0314    0.7098   43.1088 N   0  0  0  0  0  0  0  0  0  0  0  0
   15.4398   -0.6679   43.4045 C   0  0  2  0  0  0  0  0  0  0  0  0
   14.3076   -1.4510   44.0179 C   0  0  0  0  0  0  0  0  0  0  0  0
   14.4110   -2.6932   44.1893 O   0  0  0  0  0  0  0  0  0  0  0  0
   16.6498   -0.6702   44.3528 C   0  0  0  0  0  0  0  0  0  0  0  0
   16.3832   -1.4970   45.6191 C   0  0  0  0  0  0  0  0  0  0  0  0
   15.8044   -0.4668   46.9659 S   0  0  1  0  0  0  0  0  0  0  0  0
   15.3804   -1.5296   48.3294 C   0  0  0  0  0  0  0  0  0  0  0  0
   16.9298    0.5239   47.4014 N   0  0  0  0  0  0  0  0  0  0  0  0
   14.5891    0.3108   46.5386 O   0  0  0  0  0  0  0  0  0  0  0  0
   13.1518   -0.8077   44.4175 O   0  0  0  0  0  0  0  0  0  0  0  0
   14.9726    0.8319   42.0713 H   0  0  0  0  0  0  0  0  0  0  0  0
   14.0826    0.8941   43.5103 H   0  0  0  0  0  0  0  0  0  0  0  0
   15.7272   -1.1668   42.4523 H   0  0  0  0  0  0  0  0  0  0  0  0
   17.5427   -1.0736   43.8260 H   0  0  0  0  0  0  0  0  0  0  0  0
   16.8665    0.3782   44.6488 H   0  0  0  0  0  0  0  0  0  0  0  0
   17.3139   -2.0078   45.9451 H   0  0  0  0  0  0  0  0  0  0  0  0
   15.6118   -2.2682   45.4081 H   0  0  0  0  0  0  0  0  0  0  0  0
   15.2501   -0.9186   49.2463 H   0  0  0  0  0  0  0  0  0  0  0  0
   14.4298   -2.0598   48.1154 H   0  0  0  0  0  0  0  0  0  0  0  0
   16.1917   -2.2683   48.4949 H   0  0  0  0  0  0  0  0  0  0  0  0
   17.3054    1.2074   46.7292 H   0  0  0  0  0  0  0  0  0  0  0  0
   13.1039    0.2036   44.4538 H   0  0  0  0  0  0  0  0  0  0  0  0
  2  1  1  0
  3  2  1  0
  4  3  2  0
  5  2  1  0
  6  5  1  0
  7  6  1  6
  7  8  1  0
  9  7  2  0
 10  7  2  0
 11  3  1  0
  1 12  1  0
  1 13  1  0
  2 14  1  6
  5 15  1  0
  5 16  1  0
  6 17  1  0
  6 18  1  0
  8 19  1  0
  8 20  1  0
  8 21  1  0
  9 22  1  0
 11 23  1  0
M  END
