
     RDKit          3D

 12 12  0  0  0  0  0  0  0  0999 V2000
   90.6023   55.8912   45.7256 N   0  0  0  0  0  0  0  0  0  0  0  0
   90.0919   54.6323   45.8458 C   0  0  0  0  0  0  0  0  0  0  0  0
   89.1951   54.3801   46.6973 O   0  0  0  0  0  0  0  0  0  0  0  0
   90.5530   53.6363   45.0408 N   0  0  0  0  0  0  0  0  0  0  0  0
   91.5188   53.8609   44.1097 C   0  0  0  0  0  0  0  0  0  0  0  0
   91.9223   52.9113   43.3833 O   0  0  0  0  0  0  0  0  0  0  0  0
   92.0537   55.1440   43.9710 C   0  0  0  0  0  0  0  0  0  0  0  0
   91.5710   56.1588   44.8044 C   0  0  0  0  0  0  0  0  0  0  0  0
   93.5584   55.5479   42.5435 I   0  0  0  0  0  0  0  0  0  0  0  0
   90.2522   56.6596   46.3411 H   0  0  0  0  0  0  0  0  0  0  0  0
   90.1554   52.6741   45.1410 H   0  0  0  0  0  0  0  0  0  0  0  0
   91.9689   57.1620   44.7182 H   0  0  0  0  0  0  0  0  0  0  0  0
  2  1  1  0
  3  2  2  0
  4  2  1  0
  5  4  1  0
  6  5  2  0
  7  5  1  0
  8  7  2  0
  8  1  1  0
  9  7  1  0
  1 10  1  0
  4 11  1  0
  8 12  1  0
M  END
