
     RDKit          3D

 12 12  0  0  0  0  0  0  0  0999 V2000
   90.4774   56.3938   47.4468 N   0  0  0  0  0  0  0  0  0  0  0  0
   89.9670   55.1350   47.5670 C   0  0  0  0  0  0  0  0  0  0  0  0
   89.0702   54.8828   48.4185 O   0  0  0  0  0  0  0  0  0  0  0  0
   90.4281   54.1390   46.7620 N   0  0  0  0  0  0  0  0  0  0  0  0
   91.3939   54.3636   45.8310 C   0  0  0  0  0  0  0  0  0  0  0  0
   91.7974   53.4140   45.1045 O   0  0  0  0  0  0  0  0  0  0  0  0
   91.9288   55.6467   45.6922 C   0  0  0  0  0  0  0  0  0  0  0  0
   91.4461   56.6615   46.5256 C   0  0  0  0  0  0  0  0  0  0  0  0
   93.4335   56.0506   44.2647 I   0  0  0  0  0  0  0  0  0  0  0  0
   90.1273   57.1623   48.0623 H   0  0  0  0  0  0  0  0  0  0  0  0
   90.0305   53.1768   46.8623 H   0  0  0  0  0  0  0  0  0  0  0  0
   91.8440   57.6646   46.4395 H   0  0  0  0  0  0  0  0  0  0  0  0
  2  1  1  0
  3  2  2  0
  4  2  1  0
  5  4  1  0
  6  5  2  0
  7  5  1  0
  8  7  2  0
  8  1  1  0
  9  7  1  0
  1 10  1  0
  4 11  1  0
  8 12  1  0
M  END
