
     RDKit          3D

 14 13  0  0  0  0  0  0  0  0999 V2000
    0.3656    2.7514  -16.4469 P   0  0  0  0  0  0  0  0  0  0  0  0
    1.5734    1.8492  -16.3545 O   0  0  0  0  0  0  0  0  0  0  0  0
   -0.3938    2.7117  -14.9356 O   0  0  0  0  0  0  0  0  0  0  0  0
    0.8479    4.3144  -16.8330 O   0  0  0  0  0  0  0  0  0  0  0  0
   -0.6841    2.1675  -17.6221 O   0  0  0  0  0  0  0  0  0  0  0  0
   -0.7762    3.9977  -14.5209 C   0  0  0  0  0  0  0  0  0  0  0  0
    0.4854    4.8468  -14.4648 C   0  0  0  0  0  0  0  0  0  0  0  0
    1.6978    4.4501  -16.3427 H   0  0  0  0  0  0  0  0  0  0  0  0
   -0.3564    1.2548  -17.8236 H   0  0  0  0  0  0  0  0  0  0  0  0
   -1.4671    4.4875  -15.2414 H   0  0  0  0  0  0  0  0  0  0  0  0
   -1.2435    3.9527  -13.5128 H   0  0  0  0  0  0  0  0  0  0  0  0
    0.4432    5.6322  -15.2487 H   0  0  0  0  0  0  0  0  0  0  0  0
    1.3813    4.2132  -14.6387 H   0  0  0  0  0  0  0  0  0  0  0  0
    0.5716    5.3369  -13.4716 H   0  0  0  0  0  0  0  0  0  0  0  0
  2  1  2  0
  3  1  1  0
  4  1  1  0
  5  1  1  0
  6  3  1  0
  7  6  1  0
  4  8  1  0
  5  9  1  0
  6 10  1  0
  6 11  1  0
  7 12  1  0
  7 13  1  0
  7 14  1  0
M  END
