
     RDKit          3D

 36 37  0  0  0  0  0  0  0  0999 V2000
   82.6058   -9.5061   61.8240 C   0  0  0  0  0  0  0  0  0  0  0  0
   80.8836   -6.1299   58.8575 C   0  0  0  0  0  0  0  0  0  0  0  0
   81.7272   -7.1196   59.6490 C   0  0  0  0  0  0  0  0  0  0  0  0
   83.0658   -9.5143   64.3036 C   0  0  0  0  0  0  0  0  0  0  0  0
   82.2311   -9.3922   59.3946 C   0  0  0  0  0  0  0  0  0  0  0  0
   82.6340  -10.2102   63.0352 C   0  0  0  0  0  0  0  0  0  0  0  0
   82.1792  -11.5407   63.0313 C   0  0  0  0  0  0  0  0  0  0  0  0
   81.7478  -11.4129   60.7058 C   0  0  0  0  0  0  0  0  0  0  0  0
   81.7409  -12.1060   61.8751 N   0  0  0  0  0  0  0  0  0  0  0  0
   82.1855  -10.1172   60.6740 N   0  0  0  0  0  0  0  0  0  0  0  0
   82.1757  -12.2223   64.0905 O   0  0  0  0  0  0  0  0  0  0  0  0
   81.3432  -11.9750   59.6515 O   0  0  0  0  0  0  0  0  0  0  0  0
   80.9973   -6.4017   57.4810 O   0  0  0  0  0  0  0  0  0  0  0  0
   81.2379   -8.3986   59.3151 O   0  0  0  0  0  0  0  0  0  0  0  0
   81.8483   -9.0979   65.0849 C   0  0  0  0  0  0  0  0  0  0  0  0
   81.4655   -9.8122   66.2336 C   0  0  0  0  0  0  0  0  0  0  0  0
   81.0415   -8.0418   64.6296 C   0  0  0  0  0  0  0  0  0  0  0  0
   80.3034   -9.4641   66.9263 C   0  0  0  0  0  0  0  0  0  0  0  0
   79.8800   -7.6967   65.3268 C   0  0  0  0  0  0  0  0  0  0  0  0
   79.5127   -8.4053   66.4744 C   0  0  0  0  0  0  0  0  0  0  0  0
   82.9332   -8.4728   61.7961 H   0  0  0  0  0  0  0  0  0  0  0  0
   81.2035   -5.0869   59.0804 H   0  0  0  0  0  0  0  0  0  0  0  0
   79.8182   -6.2341   59.1543 H   0  0  0  0  0  0  0  0  0  0  0  0
   82.7880   -6.9720   59.3528 H   0  0  0  0  0  0  0  0  0  0  0  0
   81.6094   -6.9329   60.7387 H   0  0  0  0  0  0  0  0  0  0  0  0
   83.7068  -10.1938   64.9067 H   0  0  0  0  0  0  0  0  0  0  0  0
   83.6866   -8.6210   64.0722 H   0  0  0  0  0  0  0  0  0  0  0  0
   82.1770  -10.0677   58.5112 H   0  0  0  0  0  0  0  0  0  0  0  0
   83.2194   -8.8920   59.3049 H   0  0  0  0  0  0  0  0  0  0  0  0
   81.4019  -13.0955   61.8833 H   0  0  0  0  0  0  0  0  0  0  0  0
   80.2304   -6.9858   57.2426 H   0  0  0  0  0  0  0  0  0  0  0  0
   82.0666  -10.6373   66.5942 H   0  0  0  0  0  0  0  0  0  0  0  0
   81.3083   -7.4940   63.7342 H   0  0  0  0  0  0  0  0  0  0  0  0
   80.0151  -10.0153   67.8120 H   0  0  0  0  0  0  0  0  0  0  0  0
   79.2611   -6.8818   64.9744 H   0  0  0  0  0  0  0  0  0  0  0  0
   78.6120   -8.1361   67.0107 H   0  0  0  0  0  0  0  0  0  0  0  0
  3  2  1  0
  6  4  1  0
  6  1  2  0
  7  6  1  0
  9  7  1  0
  9  8  1  0
 10  8  1  0
 10  5  1  0
 10  1  1  0
 11  7  2  0
 12  8  2  0
 13  2  1  0
 14  3  1  0
 14  5  1  0
 15  4  1  0
 16 15  2  0
 17 15  1  0
 18 16  1  0
 19 17  2  0
 20 19  1  0
 20 18  2  0
  1 21  1  0
  2 22  1  0
  2 23  1  0
  3 24  1  0
  3 25  1  0
  4 26  1  0
  4 27  1  0
  5 28  1  0
  5 29  1  0
  9 30  1  0
 13 31  1  0
 16 32  1  0
 17 33  1  0
 18 34  1  0
 19 35  1  0
 20 36  1  0
M  END
