
     RDKit          3D

 36 37  0  0  0  0  0  0  0  0999 V2000
   82.7820   -9.6846   62.9206 C   0  0  0  0  0  0  0  0  0  0  0  0
   80.1240   -8.0206   60.1796 C   0  0  0  0  0  0  0  0  0  0  0  0
   81.3324   -8.6824   59.5318 C   0  0  0  0  0  0  0  0  0  0  0  0
   82.2639  -10.1307   65.3481 C   0  0  0  0  0  0  0  0  0  0  0  0
   83.3671   -9.1544   60.5900 C   0  0  0  0  0  0  0  0  0  0  0  0
   82.2980  -10.5607   63.9013 C   0  0  0  0  0  0  0  0  0  0  0  0
   81.7855  -11.8000   63.4785 C   0  0  0  0  0  0  0  0  0  0  0  0
   82.2799  -11.2641   61.2250 C   0  0  0  0  0  0  0  0  0  0  0  0
   81.7802  -12.1183   62.1567 N   0  0  0  0  0  0  0  0  0  0  0  0
   82.7877  -10.0512   61.6022 N   0  0  0  0  0  0  0  0  0  0  0  0
   81.3315  -12.6268   64.3133 O   0  0  0  0  0  0  0  0  0  0  0  0
   82.2672  -11.5993   60.0089 O   0  0  0  0  0  0  0  0  0  0  0  0
   80.4545   -7.5950   61.4800 O   0  0  0  0  0  0  0  0  0  0  0  0
   82.4615   -8.1546   60.1899 O   0  0  0  0  0  0  0  0  0  0  0  0
   80.8652   -9.7095   65.7118 C   0  0  0  0  0  0  0  0  0  0  0  0
   80.1296  -10.4406   66.6609 C   0  0  0  0  0  0  0  0  0  0  0  0
   80.2557   -8.6304   65.0502 C   0  0  0  0  0  0  0  0  0  0  0  0
   78.8109  -10.0868   66.9565 C   0  0  0  0  0  0  0  0  0  0  0  0
   78.9361   -8.2798   65.3504 C   0  0  0  0  0  0  0  0  0  0  0  0
   78.2157   -9.0055   66.3034 C   0  0  0  0  0  0  0  0  0  0  0  0
   83.1679   -8.7139   63.2114 H   0  0  0  0  0  0  0  0  0  0  0  0
   79.2645   -8.7281   60.2036 H   0  0  0  0  0  0  0  0  0  0  0  0
   79.8240   -7.1346   59.5803 H   0  0  0  0  0  0  0  0  0  0  0  0
   81.2283   -9.7805   59.6657 H   0  0  0  0  0  0  0  0  0  0  0  0
   81.3656   -8.4350   58.4483 H   0  0  0  0  0  0  0  0  0  0  0  0
   82.6046  -10.9663   65.9978 H   0  0  0  0  0  0  0  0  0  0  0  0
   82.9676   -9.2880   65.5263 H   0  0  0  0  0  0  0  0  0  0  0  0
   83.7618   -9.6994   59.7029 H   0  0  0  0  0  0  0  0  0  0  0  0
   84.2559   -8.6514   61.0283 H   0  0  0  0  0  0  0  0  0  0  0  0
   81.3942  -13.0416   61.8522 H   0  0  0  0  0  0  0  0  0  0  0  0
   80.6410   -8.4149   62.0083 H   0  0  0  0  0  0  0  0  0  0  0  0
   80.5765  -11.2833   67.1731 H   0  0  0  0  0  0  0  0  0  0  0  0
   80.7990   -8.0689   64.3002 H   0  0  0  0  0  0  0  0  0  0  0  0
   78.2503  -10.6512   67.6905 H   0  0  0  0  0  0  0  0  0  0  0  0
   78.4696   -7.4471   64.8399 H   0  0  0  0  0  0  0  0  0  0  0  0
   77.1938   -8.7319   66.5319 H   0  0  0  0  0  0  0  0  0  0  0  0
  3  2  1  0
  6  4  1  0
  6  1  2  0
  7  6  1  0
  9  7  1  0
  9  8  1  0
 10  8  1  0
 10  5  1  0
 10  1  1  0
 11  7  2  0
 12  8  2  0
 13  2  1  0
 14  3  1  0
 14  5  1  0
 15  4  1  0
 16 15  2  0
 17 15  1  0
 18 16  1  0
 19 17  2  0
 20 19  1  0
 20 18  2  0
  1 21  1  0
  2 22  1  0
  2 23  1  0
  3 24  1  0
  3 25  1  0
  4 26  1  0
  4 27  1  0
  5 28  1  0
  5 29  1  0
  9 30  1  0
 13 31  1  0
 16 32  1  0
 17 33  1  0
 18 34  1  0
 19 35  1  0
 20 36  1  0
M  END
