
     RDKit          3D

 50 50  0  0  0  0  0  0  0  0999 V2000
   17.2639   36.5642    5.3737 C   0  0  0  0  0  0  0  0  0  0  0  0
   15.8797   36.7369    5.9276 C   0  0  2  0  0  0  0  0  0  0  0  0
   15.3257   38.0706    5.4206 C   0  0  0  0  0  0  0  0  0  0  0  0
   13.9059   38.3312    5.9149 C   0  0  0  0  0  0  0  0  0  0  0  0
   13.0583   38.8199    4.7463 C   0  0  0  0  0  0  0  0  0  0  0  0
   11.6201   38.7003    5.0889 C   0  0  0  0  0  0  0  0  0  0  0  0
   10.8815   37.6180    4.5565 N   0  0  0  0  0  0  0  0  0  0  0  0
    9.4917   37.3599    4.8886 C   0  0  2  0  0  0  0  0  0  0  0  0
    8.7938   38.6632    5.1337 C   0  0  0  0  0  0  0  0  0  0  0  0
   15.8852   36.6969    7.3987 N   0  0  0  0  0  0  0  0  0  0  0  0
   11.0828   39.5241    5.8741 O   0  0  0  0  0  0  0  0  0  0  0  0
    9.4502   36.4446    6.1209 C   0  0  0  0  0  0  0  0  0  0  0  0
   10.8717   35.3013    6.1352 S   0  0  0  0  0  0  0  0  0  0  0  0
    9.3856   39.7671    4.9776 O   0  0  0  0  0  0  0  0  0  0  0  0
   17.4256   36.3331    4.1451 O   0  0  0  0  0  0  0  0  0  0  0  0
   18.3646   36.7124    6.2011 O   0  0  0  0  0  0  0  0  0  0  0  0
    7.4440   38.6355    5.5571 N   0  0  0  0  0  0  0  0  0  0  0  0
    6.5476   37.5578    5.1746 C   0  0  1  0  0  0  0  0  0  0  0  0
    5.5223   37.3631    6.2446 C   0  0  0  0  0  0  0  0  0  0  0  0
    5.8823   37.8911    3.8169 C   0  0  0  0  0  0  0  0  0  0  0  0
    6.7081   37.5714    2.5747 C   0  0  0  0  0  0  0  0  0  0  0  0
    5.0174   39.1562    3.7104 C   0  0  0  0  0  0  0  0  0  0  0  0
    5.5051   36.7142    2.9181 C   0  0  0  0  0  0  0  0  0  0  0  0
    4.2865   37.4589    6.0044 O   0  0  0  0  0  0  0  0  0  0  0  0
    5.9590   37.1130    7.5289 O   0  0  0  0  0  0  0  0  0  0  0  0
   15.2395   35.9099    5.5479 H   0  0  0  0  0  0  0  0  0  0  0  0
   15.3206   38.0729    4.3071 H   0  0  0  0  0  0  0  0  0  0  0  0
   15.9953   38.8925    5.7630 H   0  0  0  0  0  0  0  0  0  0  0  0
   13.4814   37.3895    6.3292 H   0  0  0  0  0  0  0  0  0  0  0  0
   13.9059   39.1074    6.7114 H   0  0  0  0  0  0  0  0  0  0  0  0
   13.2861   38.2326    3.8294 H   0  0  0  0  0  0  0  0  0  0  0  0
   13.2882   39.8867    4.5320 H   0  0  0  0  0  0  0  0  0  0  0  0
   11.3978   36.9238    3.9694 H   0  0  0  0  0  0  0  0  0  0  0  0
    8.9734   36.8374    4.0556 H   0  0  0  0  0  0  0  0  0  0  0  0
   15.3533   37.5138    7.7797 H   0  0  0  0  0  0  0  0  0  0  0  0
   16.8729   36.7672    7.7367 H   0  0  0  0  0  0  0  0  0  0  0  0
    9.4411   37.0325    7.0613 H   0  0  0  0  0  0  0  0  0  0  0  0
    8.5158   35.8439    6.0972 H   0  0  0  0  0  0  0  0  0  0  0  0
   11.7679   36.3082    5.7301 H   0  0  0  0  0  0  0  0  0  0  0  0
   19.3052   36.6178    5.8370 H   0  0  0  0  0  0  0  0  0  0  0  0
    7.0420   39.4927    6.0008 H   0  0  0  0  0  0  0  0  0  0  0  0
    7.1140   36.6025    5.1071 H   0  0  0  0  0  0  0  0  0  0  0  0
    6.5432   38.2231    1.6900 H   0  0  0  0  0  0  0  0  0  0  0  0
    7.6701   37.0415    2.7332 H   0  0  0  0  0  0  0  0  0  0  0  0
    5.5700   40.0249    4.1241 H   0  0  0  0  0  0  0  0  0  0  0  0
    4.0631   39.0534    4.2704 H   0  0  0  0  0  0  0  0  0  0  0  0
    4.7764   39.3570    2.6461 H   0  0  0  0  0  0  0  0  0  0  0  0
    4.6316   36.8767    2.2514 H   0  0  0  0  0  0  0  0  0  0  0  0
    5.7671   35.7067    3.3061 H   0  0  0  0  0  0  0  0  0  0  0  0
    5.7877   36.2180    7.9715 H   0  0  0  0  0  0  0  0  0  0  0  0
  2  1  1  0
  3  2  1  0
  4  3  1  0
  5  4  1  0
  6  5  1  0
  7  6  1  0
  8  7  1  0
  9  8  1  0
  2 10  1  0
 11  6  2  0
  8 12  1  0
 13 12  1  0
 14  9  2  0
 15  1  2  0
 16  1  1  0
 17  9  1  0
 18 17  1  0
 19 18  1  0
 20 18  1  0
 21 20  1  0
 20 22  1  0
 23 21  1  0
 23 20  1  0
 24 19  2  0
 25 19  1  0
  2 26  1  6
  3 27  1  0
  3 28  1  0
  4 29  1  0
  4 30  1  0
  5 31  1  0
  5 32  1  0
  7 33  1  0
  8 34  1  6
 10 35  1  0
 10 36  1  0
 12 37  1  0
 12 38  1  0
 13 39  1  0
 16 40  1  0
 17 41  1  0
 18 42  1  6
 21 43  1  0
 21 44  1  0
 22 45  1  0
 22 46  1  0
 22 47  1  0
 23 48  1  0
 23 49  1  0
 25 50  1  0
M  END
