
     RDKit          3D

 99103  0  0  0  0  0  0  0  0999 V2000
    9.0664   17.6328   17.2314 N   0  0  0  0  0  0  0  0  0  0  0  0
   10.2560   17.4485   16.4203 C   0  0  1  0  0  0  0  0  0  0  0  0
   13.1655   19.4278   18.0027 C   0  0  2  0  0  0  0  0  0  0  0  0
    8.5972   16.6752   18.1819 C   0  0  0  0  0  0  0  0  0  0  0  0
    9.3233   15.7044   18.5342 O   0  0  0  0  0  0  0  0  0  0  0  0
    9.8824   17.3356   14.9522 C   0  0  0  0  0  0  0  0  0  0  0  0
   13.0745   19.7752   19.5012 C   0  0  0  0  0  0  0  0  0  0  0  0
    9.0121   16.1383   14.7858 C   0  0  0  0  0  0  0  0  0  0  0  0
   11.6485   19.8903   19.9511 C   0  0  0  0  0  0  0  0  0  0  0  0
   15.5595   23.9749   19.8526 C   0  0  0  0  0  0  0  0  0  0  0  0
   10.9192   21.0540   19.6776 C   0  0  0  0  0  0  0  0  0  0  0  0
   11.0233   18.8142   20.5995 C   0  0  0  0  0  0  0  0  0  0  0  0
    9.2210   15.2529   13.6986 N   0  0  0  0  0  0  0  0  0  0  0  0
    8.0286   15.9637   15.5494 O   0  0  0  0  0  0  0  0  0  0  0  0
    9.5858   21.1521   20.0754 C   0  0  0  0  0  0  0  0  0  0  0  0
    9.7112   18.9444   21.0512 C   0  0  0  0  0  0  0  0  0  0  0  0
    8.9881   20.1056   20.7773 C   0  0  0  0  0  0  0  0  0  0  0  0
   15.6137   19.9609   17.5676 C   0  0  0  0  0  0  0  0  0  0  0  0
   11.1848   18.5855   16.6646 C   0  0  0  0  0  0  0  0  0  0  0  0
    6.4735   17.8361   18.1782 N   0  0  0  0  0  0  0  0  0  0  0  0
   11.0635   19.6772   16.0428 O   0  0  0  0  0  0  0  0  0  0  0  0
    7.2486   16.8586   18.7207 C   0  0  0  0  0  0  0  0  0  0  0  0
   12.1723   18.4191   17.6719 N   0  0  0  0  0  0  0  0  0  0  0  0
   14.9539   17.8653   18.5158 O   0  0  0  0  0  0  0  0  0  0  0  0
    6.7701   16.1174   19.8067 C   0  0  0  0  0  0  0  0  0  0  0  0
   16.4929   22.2047   13.9969 C   0  0  2  0  0  0  0  0  0  0  0  0
   16.0423   23.1959   18.7151 N   0  0  0  0  0  0  0  0  0  0  0  0
   14.0856   23.2371   17.4043 O   0  0  0  0  0  0  0  0  0  0  0  0
    5.5070   16.4079   20.3254 C   0  0  0  0  0  0  0  0  0  0  0  0
    4.7243   17.4102   19.7386 C   0  0  0  0  0  0  0  0  0  0  0  0
    3.4364   17.6965   20.2030 C   0  0  0  0  0  0  0  0  0  0  0  0
    2.6810   18.7014   19.5904 C   0  0  0  0  0  0  0  0  0  0  0  0
    3.2175   19.4435   18.5338 C   0  0  0  0  0  0  0  0  0  0  0  0
   16.0889   20.7194   13.8995 C   0  0  2  0  0  0  0  0  0  0  0  0
    4.5007   19.1614   18.0633 C   0  0  0  0  0  0  0  0  0  0  0  0
    5.2405   18.1286   18.6445 C   0  0  0  0  0  0  0  0  0  0  0  0
   14.5459   18.8677   17.6194 C   0  0  1  0  0  0  0  0  0  0  0  0
   15.1070   25.3642   19.3805 C   0  0  0  0  0  0  0  0  0  0  0  0
   15.4825   20.7309   16.3105 N   0  0  0  0  0  0  0  0  0  0  0  0
   15.9871   22.1161   16.4567 C   0  0  1  0  0  0  0  0  0  0  0  0
   16.7091   24.1415   20.8637 C   0  0  0  0  0  0  0  0  0  0  0  0
   15.7860   22.9039   15.1621 C   0  0  0  0  0  0  0  0  0  0  0  0
   14.4061   23.2271   20.5308 C   0  0  0  0  0  0  0  0  0  0  0  0
   16.2540   22.9353   12.6649 C   0  0  0  0  0  0  0  0  0  0  0  0
   14.8453   22.7026   12.1045 C   0  0  0  0  0  0  0  0  0  0  0  0
   14.5465   21.2084   11.9893 C   0  0  0  0  0  0  0  0  0  0  0  0
   14.6641   20.5373   13.3538 C   0  0  0  0  0  0  0  0  0  0  0  0
   16.2573   20.0375   15.2526 C   0  0  0  0  0  0  0  0  0  0  0  0
   15.2865   22.8746   17.5454 C   0  0  0  0  0  0  0  0  0  0  0  0
    8.5404   18.5238   17.0818 H   0  0  0  0  0  0  0  0  0  0  0  0
   10.7803   16.5088   16.7073 H   0  0  0  0  0  0  0  0  0  0  0  0
   12.9743   20.3553   17.4188 H   0  0  0  0  0  0  0  0  0  0  0  0
    9.3500   18.2488   14.6058 H   0  0  0  0  0  0  0  0  0  0  0  0
   10.7988   17.2102   14.3343 H   0  0  0  0  0  0  0  0  0  0  0  0
   13.5852   19.0138   20.1285 H   0  0  0  0  0  0  0  0  0  0  0  0
   13.5915   20.7380   19.6947 H   0  0  0  0  0  0  0  0  0  0  0  0
   11.3805   21.8798   19.1498 H   0  0  0  0  0  0  0  0  0  0  0  0
   11.5630   17.8955   20.7934 H   0  0  0  0  0  0  0  0  0  0  0  0
    9.9971   15.4119   13.0184 H   0  0  0  0  0  0  0  0  0  0  0  0
    8.5873   14.4352   13.5568 H   0  0  0  0  0  0  0  0  0  0  0  0
    9.0210   22.0495   19.8587 H   0  0  0  0  0  0  0  0  0  0  0  0
    9.2401   18.1291   21.5848 H   0  0  0  0  0  0  0  0  0  0  0  0
    7.9627   20.1949   21.1108 H   0  0  0  0  0  0  0  0  0  0  0  0
   16.6244   19.4970   17.6502 H   0  0  0  0  0  0  0  0  0  0  0  0
   15.5284   20.5902   18.4756 H   0  0  0  0  0  0  0  0  0  0  0  0
   12.1996   17.5173   18.2012 H   0  0  0  0  0  0  0  0  0  0  0  0
   14.5439   17.0121   18.2167 H   0  0  0  0  0  0  0  0  0  0  0  0
    7.3741   15.3445   20.2652 H   0  0  0  0  0  0  0  0  0  0  0  0
   17.5878   22.2491   14.1990 H   0  0  0  0  0  0  0  0  0  0  0  0
   17.0310   22.8556   18.7490 H   0  0  0  0  0  0  0  0  0  0  0  0
    5.1366   15.8413   21.1714 H   0  0  0  0  0  0  0  0  0  0  0  0
    3.0125   17.1444   21.0333 H   0  0  0  0  0  0  0  0  0  0  0  0
    1.6832   18.9192   19.9489 H   0  0  0  0  0  0  0  0  0  0  0  0
    2.6349   20.2324   18.0761 H   0  0  0  0  0  0  0  0  0  0  0  0
   16.7888   20.2194   13.1911 H   0  0  0  0  0  0  0  0  0  0  0  0
    4.9094   19.7322   17.2385 H   0  0  0  0  0  0  0  0  0  0  0  0
   14.4496   18.4180   16.6052 H   0  0  0  0  0  0  0  0  0  0  0  0
   13.9975   25.4198   19.3434 H   0  0  0  0  0  0  0  0  0  0  0  0
   15.4819   25.5969   18.3633 H   0  0  0  0  0  0  0  0  0  0  0  0
   15.4746   26.1472   20.0782 H   0  0  0  0  0  0  0  0  0  0  0  0
   17.0806   22.0841   16.6736 H   0  0  0  0  0  0  0  0  0  0  0  0
   17.0632   23.1494   21.2190 H   0  0  0  0  0  0  0  0  0  0  0  0
   17.5668   24.6705   20.3943 H   0  0  0  0  0  0  0  0  0  0  0  0
   16.3780   24.7295   21.7471 H   0  0  0  0  0  0  0  0  0  0  0  0
   16.2086   23.9272   15.2802 H   0  0  0  0  0  0  0  0  0  0  0  0
   14.6994   23.0068   14.9547 H   0  0  0  0  0  0  0  0  0  0  0  0
   14.3593   22.1769   20.1699 H   0  0  0  0  0  0  0  0  0  0  0  0
   14.5429   23.2159   21.6338 H   0  0  0  0  0  0  0  0  0  0  0  0
   13.4313   23.7131   20.3213 H   0  0  0  0  0  0  0  0  0  0  0  0
   16.4254   24.0266   12.7905 H   0  0  0  0  0  0  0  0  0  0  0  0
   16.9968   22.5733   11.9198 H   0  0  0  0  0  0  0  0  0  0  0  0
   14.0833   23.1969   12.7441 H   0  0  0  0  0  0  0  0  0  0  0  0
   14.7784   23.1629   11.0953 H   0  0  0  0  0  0  0  0  0  0  0  0
   13.5129   21.0726   11.6044 H   0  0  0  0  0  0  0  0  0  0  0  0
   15.2459   20.7337   11.2658 H   0  0  0  0  0  0  0  0  0  0  0  0
   14.4463   19.4533   13.2358 H   0  0  0  0  0  0  0  0  0  0  0  0
   13.9082   20.9583   14.0521 H   0  0  0  0  0  0  0  0  0  0  0  0
   17.3432   20.0212   15.5071 H   0  0  0  0  0  0  0  0  0  0  0  0
   15.9463   18.9775   15.1448 H   0  0  0  0  0  0  0  0  0  0  0  0
  2  1  1  0
  4  1  1  0
  5  4  2  0
  2  6  1  0
  3  7  1  0
  8  6  1  0
  9  7  1  0
 11  9  2  0
 12  9  1  0
 13  8  1  0
 14  8  2  0
 15 11  1  0
 16 12  2  0
 17 16  1  0
 17 15  2  0
 19  2  1  0
 21 19  2  0
 22 20  2  0
 22  4  1  0
 23 19  1  0
 23  3  1  0
 25 22  1  0
 27 10  1  0
 29 25  2  0
 30 29  1  0
 31 30  2  0
 32 31  1  0
 33 32  2  0
 34 26  1  0
 35 33  1  0
 36 35  2  0
 36 30  1  0
 36 20  1  0
 37 24  1  0
 37 18  1  0
 37  3  1  0
 10 38  1  0
 39 18  1  0
 40 39  1  0
 41 10  1  0
 26 42  1  0
 42 40  1  0
 43 10  1  0
 44 26  1  0
 45 44  1  0
 46 45  1  0
 47 46  1  0
 34 47  1  0
 48 34  1  0
 48 39  1  0
 40 49  1  0
 49 28  2  0
 49 27  1  0
  1 50  1  0
  2 51  1  1
  3 52  1  6
  6 53  1  0
  6 54  1  0
  7 55  1  0
  7 56  1  0
 11 57  1  0
 12 58  1  0
 13 59  1  0
 13 60  1  0
 15 61  1  0
 16 62  1  0
 17 63  1  0
 18 64  1  0
 18 65  1  0
 23 66  1  0
 24 67  1  0
 25 68  1  0
 26 69  1  1
 27 70  1  0
 29 71  1  0
 31 72  1  0
 32 73  1  0
 33 74  1  0
 34 75  1  6
 35 76  1  0
 37 77  1  6
 38 78  1  0
 38 79  1  0
 38 80  1  0
 40 81  1  1
 41 82  1  0
 41 83  1  0
 41 84  1  0
 42 85  1  0
 42 86  1  0
 43 87  1  0
 43 88  1  0
 43 89  1  0
 44 90  1  0
 44 91  1  0
 45 92  1  0
 45 93  1  0
 46 94  1  0
 46 95  1  0
 47 96  1  0
 47 97  1  0
 48 98  1  0
 48 99  1  0
M  END
