
     RDKit          3D

 51 53  0  0  0  0  0  0  0  0999 V2000
   11.4658  -10.6042   25.4346 Cl  0  0  0  0  0  0  0  0  0  0  0  0
   18.4482  -15.8952   24.2743 C   0  0  0  0  0  0  0  0  0  0  0  0
   16.3216  -16.0476   23.0212 N   0  0  0  0  0  0  0  0  0  0  0  0
   16.8827  -13.3496   23.6395 O   0  0  0  0  0  0  0  0  0  0  0  0
   17.6808  -15.4982   22.9947 C   0  0  1  0  0  0  0  0  0  0  0  0
   18.2637  -13.3195   21.7785 N   0  0  0  0  0  0  0  0  0  0  0  0
   16.1800  -10.5358   20.8352 O   0  0  0  0  0  0  0  0  0  0  0  0
   17.6090  -14.0042   22.8461 C   0  0  0  0  0  0  0  0  0  0  0  0
   15.6134  -12.7105   21.4531 N   0  0  0  0  0  0  0  0  0  0  0  0
   19.2570  -13.8982   20.8905 C   0  0  0  0  0  0  0  0  0  0  0  0
   19.9505  -12.6963   20.2841 C   0  0  0  0  0  0  0  0  0  0  0  0
   18.8895  -11.5990   20.2942 C   0  0  0  0  0  0  0  0  0  0  0  0
   18.0230  -11.9133   21.5104 C   0  0  1  0  0  0  0  0  0  0  0  0
   16.5613  -11.6641   21.2477 C   0  0  0  0  0  0  0  0  0  0  0  0
   14.1752  -12.4887   21.3353 C   0  0  0  0  0  0  0  0  0  0  0  0
   13.7617  -11.3097   22.1721 C   0  0  0  0  0  0  0  0  0  0  0  0
   12.8999  -11.4861   23.2688 C   0  0  0  0  0  0  0  0  0  0  0  0
   12.5376  -10.3905   24.0628 C   0  0  0  0  0  0  0  0  0  0  0  0
   13.0304   -9.1173   23.7631 C   0  0  0  0  0  0  0  0  0  0  0  0
   13.8753   -8.9348   22.6664 C   0  0  0  0  0  0  0  0  0  0  0  0
   14.2407  -10.0252   21.8732 C   0  0  0  0  0  0  0  0  0  0  0  0
   19.8635  -15.3466   24.3231 C   0  0  0  0  0  0  0  0  0  0  0  0
   20.8195  -15.8863   25.2033 C   0  0  0  0  0  0  0  0  0  0  0  0
   22.1203  -15.3702   25.2395 C   0  0  0  0  0  0  0  0  0  0  0  0
   22.4679  -14.2856   24.4305 C   0  0  0  0  0  0  0  0  0  0  0  0
   21.5118  -13.7067   23.5927 C   0  0  0  0  0  0  0  0  0  0  0  0
   20.2234  -14.2476   23.5228 C   0  0  0  0  0  0  0  0  0  0  0  0
   18.5063  -17.0042   24.3258 H   0  0  0  0  0  0  0  0  0  0  0  0
   17.8713  -15.5653   25.1666 H   0  0  0  0  0  0  0  0  0  0  0  0
   15.9017  -15.9669   22.0658 H   0  0  0  0  0  0  0  0  0  0  0  0
   15.7232  -15.4983   23.6812 H   0  0  0  0  0  0  0  0  0  0  0  0
   18.1950  -15.9567   22.1264 H   0  0  0  0  0  0  0  0  0  0  0  0
   15.9502  -13.6626   21.7221 H   0  0  0  0  0  0  0  0  0  0  0  0
   18.7546  -14.5095   20.1099 H   0  0  0  0  0  0  0  0  0  0  0  0
   19.9992  -14.5019   21.4396 H   0  0  0  0  0  0  0  0  0  0  0  0
   20.3086  -12.9095   19.2539 H   0  0  0  0  0  0  0  0  0  0  0  0
   20.8094  -12.3918   20.9232 H   0  0  0  0  0  0  0  0  0  0  0  0
   19.3535  -10.5922   20.3761 H   0  0  0  0  0  0  0  0  0  0  0  0
   18.3020  -11.6549   19.3500 H   0  0  0  0  0  0  0  0  0  0  0  0
   18.3722  -11.3165   22.3823 H   0  0  0  0  0  0  0  0  0  0  0  0
   13.9323  -12.2812   20.2710 H   0  0  0  0  0  0  0  0  0  0  0  0
   13.5968  -13.3954   21.6156 H   0  0  0  0  0  0  0  0  0  0  0  0
   12.5199  -12.4715   23.5095 H   0  0  0  0  0  0  0  0  0  0  0  0
   12.7536   -8.2676   24.3742 H   0  0  0  0  0  0  0  0  0  0  0  0
   14.2505   -7.9469   22.4324 H   0  0  0  0  0  0  0  0  0  0  0  0
   14.8995   -9.8666   21.0283 H   0  0  0  0  0  0  0  0  0  0  0  0
   20.5576  -16.7052   25.8613 H   0  0  0  0  0  0  0  0  0  0  0  0
   22.8546  -15.8037   25.9060 H   0  0  0  0  0  0  0  0  0  0  0  0
   23.4712  -13.8815   24.4680 H   0  0  0  0  0  0  0  0  0  0  0  0
   21.7762  -12.8571   22.9765 H   0  0  0  0  0  0  0  0  0  0  0  0
   19.5024  -13.7996   22.8504 H   0  0  0  0  0  0  0  0  0  0  0  0
  5  3  1  0
  5  2  1  0
  8  6  1  0
  8  5  1  0
  8  4  2  0
 10  6  1  0
 11 10  1  0
 12 11  1  0
 13 12  1  0
 13  6  1  0
 14  7  2  0
 14  9  1  0
 13 14  1  0
 15  9  1  0
 16 15  1  0
 17 16  2  0
 18 17  1  0
 18  1  1  0
 19 18  2  0
 20 19  1  0
 21 20  2  0
 21 16  1  0
 22  2  1  0
 23 22  2  0
 24 23  1  0
 25 24  2  0
 26 25  1  0
 27 26  2  0
 27 22  1  0
  2 28  1  0
  2 29  1  0
  3 30  1  0
  3 31  1  0
  5 32  1  6
  9 33  1  0
 10 34  1  0
 10 35  1  0
 11 36  1  0
 11 37  1  0
 12 38  1  0
 12 39  1  0
 13 40  1  1
 15 41  1  0
 15 42  1  0
 17 43  1  0
 19 44  1  0
 20 45  1  0
 21 46  1  0
 23 47  1  0
 24 48  1  0
 25 49  1  0
 26 50  1  0
 27 51  1  0
M  END
