
     RDKit          3D

 31 33  0  0  0  0  0  0  0  0999 V2000
   42.8219   -0.4913   32.6599 C   0  0  0  0  0  0  0  0  0  0  0  0
   42.9349    0.5153   31.7123 O   0  0  0  0  0  0  0  0  0  0  0  0
   42.5903   -0.1186   33.9751 C   0  0  0  0  0  0  0  0  0  0  0  0
   42.4190   -1.0893   34.9567 C   0  0  0  0  0  0  0  0  0  0  0  0
   42.4710   -2.4429   34.6254 C   0  0  0  0  0  0  0  0  0  0  0  0
   42.7123   -2.8319   33.3066 C   0  0  0  0  0  0  0  0  0  0  0  0
   42.9051   -1.8553   32.3165 C   0  0  0  0  0  0  0  0  0  0  0  0
   44.1858   -2.9248   26.6763 C   0  0  0  0  0  0  0  0  0  0  0  0
   45.2457   -3.6748   24.5315 N   0  0  0  0  0  0  0  0  0  0  0  0
   43.7102   -4.2182   27.0244 C   0  0  0  0  0  0  0  0  0  0  0  0
   44.4543   -1.4792   24.7476 N   0  0  0  0  0  0  0  0  0  0  0  0
   43.2773   -4.4934   28.3164 C   0  0  0  0  0  0  0  0  0  0  0  0
   42.8892   -3.4917   30.4694 N   0  0  0  0  0  0  0  0  0  0  0  0
   43.3123   -3.4603   29.2259 C   0  0  0  0  0  0  0  0  0  0  0  0
   43.6838   -1.4161   30.0050 N   0  0  0  0  0  0  0  0  0  0  0  0
   43.7723   -2.2212   28.9342 C   0  0  0  0  0  0  0  0  0  0  0  0
   44.2264   -1.9054   27.6652 C   0  0  0  0  0  0  0  0  0  0  0  0
   44.6212   -2.6479   25.2943 C   0  0  0  0  0  0  0  0  0  0  0  0
   43.1522   -2.2498   30.9361 C   0  0  0  0  0  0  0  0  0  0  0  0
   42.2785   -3.3735   35.5913 F   0  0  0  0  0  0  0  0  0  0  0  0
   42.5297    0.9293   34.2414 H   0  0  0  0  0  0  0  0  0  0  0  0
   42.2321   -0.7909   35.9804 H   0  0  0  0  0  0  0  0  0  0  0  0
   42.7560   -3.8870   33.0660 H   0  0  0  0  0  0  0  0  0  0  0  0
   45.2857   -4.6632   24.8618 H   0  0  0  0  0  0  0  0  0  0  0  0
   45.7992   -3.4384   23.6777 H   0  0  0  0  0  0  0  0  0  0  0  0
   43.6060   -5.0109   26.2997 H   0  0  0  0  0  0  0  0  0  0  0  0
   43.9319   -0.6983   25.1966 H   0  0  0  0  0  0  0  0  0  0  0  0
   44.7904   -1.3001   23.7748 H   0  0  0  0  0  0  0  0  0  0  0  0
   42.8896   -5.4685   28.5832 H   0  0  0  0  0  0  0  0  0  0  0  0
   42.3481   -4.2846   30.8708 H   0  0  0  0  0  0  0  0  0  0  0  0
   44.6121   -0.9145   27.4712 H   0  0  0  0  0  0  0  0  0  0  0  0
  2  1  1  0
  3  1  2  0
  4  3  1  0
  5  4  2  0
  6  5  1  0
  7  6  2  0
  7  1  1  0
 10  8  2  0
 12 10  1  0
 14 13  1  0
 14 12  2  0
 16 15  1  0
 16 14  1  0
 17  8  1  0
 17 16  2  0
 18 11  2  0
 18  9  1  0
 18  8  1  0
 19 15  2  0
 19  7  1  0
 19 13  1  0
 20  5  1  0
  3 21  1  0
  4 22  1  0
  6 23  1  0
  9 24  1  0
  9 25  1  0
 10 26  1  0
 11 27  1  0
 11 28  1  0
 12 29  1  0
 13 30  1  0
 17 31  1  0
M  CHG  2   2  -1  11   1
M  END
