
     RDKit          3D

 37 38  0  0  0  0  0  0  0  0999 V2000
   21.9237   -1.9725   11.4562 N   0  0  0  0  0  0  0  0  0  0  0  0
   23.0773   -2.8000   11.8227 C   0  0  2  0  0  0  0  0  0  0  0  0
   25.3617   -1.2674   12.5284 C   0  0  0  0  0  0  0  0  0  0  0  0
   24.8245    2.4619   14.6375 C   0  0  1  0  0  0  0  0  0  0  0  0
   23.5220    1.7710   15.0768 C   0  0  2  0  0  0  0  0  0  0  0  0
   23.6540    0.2352   15.0331 C   0  0  2  0  0  0  0  0  0  0  0  0
   24.3215   -1.4326   13.6253 C   0  0  1  0  0  0  0  0  0  0  0  0
   26.0068    1.8234   15.3847 C   0  0  0  0  0  0  0  0  0  0  0  0
   24.9862   -0.2741   15.5937 C   0  0  1  0  0  0  0  0  0  0  0  0
   25.0213   -1.6472   14.9833 C   0  0  0  0  0  0  0  0  0  0  0  0
   22.8172   -4.2472   11.5440 C   0  0  0  0  0  0  0  0  0  0  0  0
   21.9690   -4.5966   10.6826 O   0  0  0  0  0  0  0  0  0  0  0  0
   25.7295   -0.1217   12.1552 O   0  0  0  0  0  0  0  0  0  0  0  0
   24.9937    2.3450   13.2458 O   0  0  0  0  0  0  0  0  0  0  0  0
   22.4385    2.1825   14.2751 O   0  0  0  0  0  0  0  0  0  0  0  0
   25.9229   -2.3890   11.9379 O   0  0  0  0  0  0  0  0  0  0  0  0
   23.5359   -0.2526   13.7141 O   0  0  0  0  0  0  0  0  0  0  0  0
   26.1062    0.4440   15.0942 O   0  0  0  0  0  0  0  0  0  0  0  0
   23.4043   -2.6340   13.3215 C   0  0  0  0  0  0  0  0  0  0  0  0
   23.5271   -5.2056   12.2474 O   0  0  0  0  0  0  0  0  0  0  0  0
   21.7633   -2.0453   10.4248 H   0  0  0  0  0  0  0  0  0  0  0  0
   21.0647   -2.3189   11.9440 H   0  0  0  0  0  0  0  0  0  0  0  0
   23.9463   -2.5006   11.1992 H   0  0  0  0  0  0  0  0  0  0  0  0
   24.7605    3.5397   14.9157 H   0  0  0  0  0  0  0  0  0  0  0  0
   23.3203    2.0549   16.1371 H   0  0  0  0  0  0  0  0  0  0  0  0
   22.8198   -0.1946   15.6348 H   0  0  0  0  0  0  0  0  0  0  0  0
   25.9113    1.9893   16.4822 H   0  0  0  0  0  0  0  0  0  0  0  0
   26.9472    2.3192   15.0638 H   0  0  0  0  0  0  0  0  0  0  0  0
   24.9975   -0.3163   16.7064 H   0  0  0  0  0  0  0  0  0  0  0  0
   24.4507   -2.3435   15.6396 H   0  0  0  0  0  0  0  0  0  0  0  0
   26.0599   -2.0374   14.8890 H   0  0  0  0  0  0  0  0  0  0  0  0
   24.6908    3.2028   12.8484 H   0  0  0  0  0  0  0  0  0  0  0  0
   22.2366    3.1210   14.5285 H   0  0  0  0  0  0  0  0  0  0  0  0
   25.5803   -3.3174   12.1540 H   0  0  0  0  0  0  0  0  0  0  0  0
   23.9068   -3.5478   13.7106 H   0  0  0  0  0  0  0  0  0  0  0  0
   22.4514   -2.5285   13.8876 H   0  0  0  0  0  0  0  0  0  0  0  0
   24.2496   -4.9388   12.9053 H   0  0  0  0  0  0  0  0  0  0  0  0
  2  1  1  0
  5  4  1  0
  6  5  1  0
  7  3  1  0
  8  4  1  0
  9  6  1  0
  9 10  1  0
 10  7  1  0
 11  2  1  0
 12 11  2  0
 13  3  2  0
  4 14  1  0
  5 15  1  0
 16  3  1  0
 17  7  1  0
  6 17  1  0
 18  9  1  0
 18  8  1  0
  7 19  1  6
 19  2  1  0
 20 11  1  0
  1 21  1  0
  1 22  1  0
  2 23  1  6
  4 24  1  6
  5 25  1  1
  6 26  1  1
  8 27  1  0
  8 28  1  0
  9 29  1  1
 10 30  1  0
 10 31  1  0
 14 32  1  0
 15 33  1  0
 16 34  1  0
 19 35  1  0
 19 36  1  0
 20 37  1  0
M  END
