
     RDKit          3D

 88 93  0  0  0  0  0  0  0  0999 V2000
   33.4931   16.0115   27.8144 P   0  0  2  0  0  0  0  0  0  0  0  0
   35.5746   16.6071   29.5875 P   0  0  2  0  0  0  0  0  0  0  0  0
   33.2268   14.9933   26.7307 O   0  0  0  0  0  0  0  0  0  0  0  0
   33.7890   17.5133   27.1289 O   0  0  0  0  0  0  0  0  0  0  0  0
   34.7971   15.4121   28.6856 O   0  0  0  0  0  0  0  0  0  0  0  0
   31.7356   14.9358   29.3482 C   0  0  0  0  0  0  0  0  0  0  0  0
   32.1701   16.1821   28.8540 O   0  0  0  0  0  0  0  0  0  0  0  0
   30.2200   14.8438   29.1479 C   0  0  1  0  0  0  0  0  0  0  0  0
   29.5823   15.8626   29.8902 O   0  0  0  0  0  0  0  0  0  0  0  0
   29.8478   14.9275   27.6467 C   0  0  1  0  0  0  0  0  0  0  0  0
   30.6617   14.0518   26.9039 O   0  0  0  0  0  0  0  0  0  0  0  0
   28.3848   14.5362   27.3874 C   0  0  1  0  0  0  0  0  0  0  0  0
   27.5174   15.0981   28.3404 O   0  0  0  0  0  0  0  0  0  0  0  0
   27.9890   14.9617   25.9636 C   0  0  0  0  0  0  0  0  0  0  0  0
   37.7803   14.6749   33.6437 C   0  0  1  0  0  0  0  0  0  0  0  0
   25.4275   16.2977   25.7223 N   0  0  0  0  0  0  0  0  0  0  0  0
   38.9585   17.2088   37.9943 N   0  0  0  0  0  0  0  0  0  0  0  0
   34.6366   17.5722   30.2813 O   0  0  0  0  0  0  0  0  0  0  0  0
   24.3159   17.0067   25.4285 C   0  0  0  0  0  0  0  0  0  0  0  0
   39.4150   15.9911   37.5621 C   0  0  0  0  0  0  0  0  0  0  0  0
   36.4693   13.9907   33.2830 C   0  0  2  0  0  0  0  0  0  0  0  0
   24.2675   18.2316   25.7118 O   0  0  0  0  0  0  0  0  0  0  0  0
   36.6721   17.4171   28.6092 O   0  0  0  0  0  0  0  0  0  0  0  0
   35.9733   13.1834   34.3211 O   0  0  0  0  0  0  0  0  0  0  0  0
   36.9009   13.1886   32.0778 C   0  0  2  0  0  0  0  0  0  0  0  0
   23.2532   16.4055   24.8329 N   0  0  0  0  0  0  0  0  0  0  0  0
   38.9910   15.4689   36.3711 N   0  0  0  0  0  0  0  0  0  0  0  0
   37.5044   11.9879   32.4961 O   0  0  0  0  0  0  0  0  0  0  0  0
   23.2882   15.0946   24.4910 C   0  0  0  0  0  0  0  0  0  0  0  0
   38.1111   16.1945   35.6371 C   0  0  0  0  0  0  0  0  0  0  0  0
   37.9599   14.1075   31.4363 C   0  0  2  0  0  0  0  0  0  0  0  0
   24.4345   14.3509   24.7557 C   0  0  0  0  0  0  0  0  0  0  0  0
   22.2921   14.5681   23.9228 O   0  0  0  0  0  0  0  0  0  0  0  0
   38.4234   15.0096   32.4303 O   0  0  0  0  0  0  0  0  0  0  0  0
   37.6594   17.4084   36.0342 C   0  0  0  0  0  0  0  0  0  0  0  0
   37.3855   14.9172   30.2623 C   0  0  0  0  0  0  0  0  0  0  0  0
   25.7910   12.3580   24.2994 C   0  0  0  0  0  0  0  0  0  0  0  0
   24.5196   12.9877   24.3599 N   0  0  0  0  0  0  0  0  0  0  0  0
   36.3901   15.7573   30.7952 O   0  0  0  0  0  0  0  0  0  0  0  0
   25.9375   11.1893   23.5568 C   0  0  0  0  0  0  0  0  0  0  0  0
   38.0823   17.9425   37.2495 C   0  0  0  0  0  0  0  0  0  0  0  0
   37.6220   19.2049   37.7196 N   0  0  0  0  0  0  0  0  0  0  0  0
   27.1905   10.5846   23.4165 C   0  0  0  0  0  0  0  0  0  0  0  0
   27.3170    9.3372   22.5887 C   0  0  0  0  0  0  0  0  0  0  0  0
   36.8200   17.9220   35.1129 N   0  0  0  0  0  0  0  0  0  0  0  0
   28.3004   11.1299   24.0879 C   0  0  0  0  0  0  0  0  0  0  0  0
   36.7934   16.9579   34.1519 C   0  0  0  0  0  0  0  0  0  0  0  0
   29.6641   10.4931   24.0074 C   0  0  0  0  0  0  0  0  0  0  0  0
   28.1427   12.2949   24.8386 C   0  0  0  0  0  0  0  0  0  0  0  0
   26.9007   12.9528   24.9177 C   0  0  0  0  0  0  0  0  0  0  0  0
   37.5631   15.8779   34.4527 N   0  0  0  0  0  0  0  0  0  0  0  0
   25.5337   14.9852   25.3632 C   0  0  0  0  0  0  0  0  0  0  0  0
   26.7720   14.2623   25.5260 N   0  0  0  0  0  0  0  0  0  0  0  0
   32.9353   17.7648   26.6943 H   0  0  0  0  0  0  0  0  0  0  0  0
   31.9556   14.8965   30.4366 H   0  0  0  0  0  0  0  0  0  0  0  0
   32.2277   14.0434   28.8958 H   0  0  0  0  0  0  0  0  0  0  0  0
   29.8858   13.8610   29.5474 H   0  0  0  0  0  0  0  0  0  0  0  0
   29.5329   16.6784   29.3269 H   0  0  0  0  0  0  0  0  0  0  0  0
   30.0131   15.9809   27.3110 H   0  0  0  0  0  0  0  0  0  0  0  0
   30.6673   13.1765   27.3711 H   0  0  0  0  0  0  0  0  0  0  0  0
   28.3005   13.4316   27.4805 H   0  0  0  0  0  0  0  0  0  0  0  0
   27.5536   16.0849   28.2350 H   0  0  0  0  0  0  0  0  0  0  0  0
   27.9512   16.0582   25.8786 H   0  0  0  0  0  0  0  0  0  0  0  0
   28.7959   14.7745   25.2294 H   0  0  0  0  0  0  0  0  0  0  0  0
   38.4307   13.9631   34.2031 H   0  0  0  0  0  0  0  0  0  0  0  0
   26.1407   16.7967   26.2893 H   0  0  0  0  0  0  0  0  0  0  0  0
   40.1133   15.4345   38.1718 H   0  0  0  0  0  0  0  0  0  0  0  0
   35.6906   14.7247   32.9762 H   0  0  0  0  0  0  0  0  0  0  0  0
   37.1572   18.0242   29.2232 H   0  0  0  0  0  0  0  0  0  0  0  0
   35.6368   13.8028   35.0200 H   0  0  0  0  0  0  0  0  0  0  0  0
   36.0319   12.9784   31.4106 H   0  0  0  0  0  0  0  0  0  0  0  0
   22.3969   16.9682   24.6229 H   0  0  0  0  0  0  0  0  0  0  0  0
   37.5864   11.4188   31.6869 H   0  0  0  0  0  0  0  0  0  0  0  0
   38.8181   13.5082   31.0594 H   0  0  0  0  0  0  0  0  0  0  0  0
   38.2002   15.5234   29.8079 H   0  0  0  0  0  0  0  0  0  0  0  0
   36.9704   14.2186   29.5014 H   0  0  0  0  0  0  0  0  0  0  0  0
   23.6800   12.4942   23.9795 H   0  0  0  0  0  0  0  0  0  0  0  0
   25.0723   10.7612   23.0642 H   0  0  0  0  0  0  0  0  0  0  0  0
   37.9553   19.5775   38.6362 H   0  0  0  0  0  0  0  0  0  0  0  0
   36.9490   19.7739   37.1593 H   0  0  0  0  0  0  0  0  0  0  0  0
   27.6819    9.5880   21.5708 H   0  0  0  0  0  0  0  0  0  0  0  0
   28.0298    8.6379   23.0737 H   0  0  0  0  0  0  0  0  0  0  0  0
   26.3410    8.8185   22.4768 H   0  0  0  0  0  0  0  0  0  0  0  0
   36.2174   17.0525   33.2411 H   0  0  0  0  0  0  0  0  0  0  0  0
   30.0630   10.5968   22.9767 H   0  0  0  0  0  0  0  0  0  0  0  0
   30.3870   10.9634   24.7078 H   0  0  0  0  0  0  0  0  0  0  0  0
   29.5979    9.4163   24.2686 H   0  0  0  0  0  0  0  0  0  0  0  0
   29.0116   12.6647   25.3553 H   0  0  0  0  0  0  0  0  0  0  0  0
  3  1  2  0
  1  4  1  6
  5  1  1  0
  2  5  1  6
  7  6  1  0
  7  1  1  0
  8  6  1  0
  8  9  1  0
 10  8  1  0
 10 11  1  0
 12 10  1  0
 12 13  1  0
 14 12  1  0
 18  2  2  0
 19 16  1  0
 20 17  2  0
 21 15  1  0
 22 19  2  0
 23  2  1  0
 21 24  1  0
 25 21  1  0
 26 19  1  0
 27 20  1  0
 25 28  1  0
 29 26  1  0
 30 27  2  0
 31 25  1  0
 32 29  1  0
 33 29  2  0
 34 31  1  0
 34 15  1  0
 35 30  1  0
 31 36  1  0
 38 37  1  0
 38 32  1  0
 39 36  1  0
 39  2  1  0
 40 37  1  0
 41 35  2  0
 41 17  1  0
 42 41  1  0
 43 40  2  0
 44 43  1  0
 45 35  1  0
 46 43  1  0
 47 45  2  0
 48 46  1  0
 49 46  2  0
 50 37  2  0
 50 49  1  0
 51 30  1  0
 15 51  1  0
 51 47  1  0
 52 32  2  0
 52 16  1  0
 53 52  1  0
 53 50  1  0
 53 14  1  0
  4 54  1  0
  6 55  1  0
  6 56  1  0
  8 57  1  1
  9 58  1  0
 10 59  1  6
 11 60  1  0
 12 61  1  6
 13 62  1  0
 14 63  1  0
 14 64  1  0
 15 65  1  1
 16 66  1  0
 20 67  1  0
 21 68  1  6
 23 69  1  0
 24 70  1  0
 25 71  1  6
 26 72  1  0
 28 73  1  0
 31 74  1  6
 36 75  1  0
 36 76  1  0
 38 77  1  0
 40 78  1  0
 42 79  1  0
 42 80  1  0
 44 81  1  0
 44 82  1  0
 44 83  1  0
 47 84  1  0
 48 85  1  0
 48 86  1  0
 48 87  1  0
 49 88  1  0
M  END
