
     RDKit          3D

 35 36  0  0  0  0  0  0  0  0999 V2000
   25.4953   -1.7802    8.1824 P   0  0  0  0  0  0  0  0  0  0  0  0
   23.3726   -0.4065    8.5971 C   0  0  0  0  0  0  0  0  0  0  0  0
   24.4917   -0.9365    9.2466 O   0  0  0  0  0  0  0  0  0  0  0  0
   22.5995    0.4015    9.6495 C   0  0  1  0  0  0  0  0  0  0  0  0
   21.6264    1.1958    9.0127 O   0  0  0  0  0  0  0  0  0  0  0  0
   21.9065   -0.4905   10.6947 C   0  0  1  0  0  0  0  0  0  0  0  0
   21.9346    0.1128   11.9724 O   0  0  0  0  0  0  0  0  0  0  0  0
   20.4984   -0.5815   10.1570 C   0  0  1  0  0  0  0  0  0  0  0  0
   19.5550   -0.7793   11.1789 O   0  0  0  0  0  0  0  0  0  0  0  0
   20.3647    0.7904    9.4846 C   0  0  2  0  0  0  0  0  0  0  0  0
   19.3907    0.8234    8.3709 N   0  0  0  0  0  0  0  0  0  0  0  0
   18.1809    2.6276    9.4334 O   0  0  0  0  0  0  0  0  0  0  0  0
   19.5709    0.0384    7.2554 C   0  0  0  0  0  0  0  0  0  0  0  0
   20.5336   -0.7666    7.1807 O   0  0  0  0  0  0  0  0  0  0  0  0
   18.7192    0.1274    6.2017 N   0  0  0  0  0  0  0  0  0  0  0  0
   17.6991    1.0166    6.1957 C   0  0  0  0  0  0  0  0  0  0  0  0
   16.9221    1.0730    5.2077 O   0  0  0  0  0  0  0  0  0  0  0  0
   17.5200    1.8667    7.2778 C   0  0  0  0  0  0  0  0  0  0  0  0
   18.3812    1.7561    8.3672 C   0  0  0  0  0  0  0  0  0  0  0  0
   24.7199   -2.5654    7.1507 O   0  0  0  0  0  0  0  0  0  0  0  0
   26.3776   -2.8275    9.1596 O   0  0  0  0  0  0  0  0  0  0  0  0
   26.5302   -0.6943    7.4208 O   0  0  0  0  0  0  0  0  0  0  0  0
   23.6856    0.2735    7.7723 H   0  0  0  0  0  0  0  0  0  0  0  0
   22.7367   -1.2245    8.1986 H   0  0  0  0  0  0  0  0  0  0  0  0
   23.3218    1.0822   10.1543 H   0  0  0  0  0  0  0  0  0  0  0  0
   22.3680   -1.5001   10.7672 H   0  0  0  0  0  0  0  0  0  0  0  0
   22.2170   -0.5580   12.6469 H   0  0  0  0  0  0  0  0  0  0  0  0
   20.4453   -1.4291    9.4421 H   0  0  0  0  0  0  0  0  0  0  0  0
   18.9350   -0.0052   11.1375 H   0  0  0  0  0  0  0  0  0  0  0  0
   20.1108    1.5100   10.2800 H   0  0  0  0  0  0  0  0  0  0  0  0
   18.2431    2.3512   10.4043 H   0  0  0  0  0  0  0  0  0  0  0  0
   18.8617   -0.4933    5.3717 H   0  0  0  0  0  0  0  0  0  0  0  0
   16.7187    2.5961    7.2811 H   0  0  0  0  0  0  0  0  0  0  0  0
   25.7797   -3.0229    9.9246 H   0  0  0  0  0  0  0  0  0  0  0  0
   27.1135   -1.2579    6.8523 H   0  0  0  0  0  0  0  0  0  0  0  0
  3  2  1  0
  3  1  1  0
  4  2  1  0
  5  4  1  0
  6  4  1  0
  6  7  1  0
  8  6  1  0
  8  9  1  0
 10  8  1  0
 10  5  1  0
 10 11  1  0
 13 11  1  0
 14 13  2  0
 15 13  1  0
 16 15  1  0
 17 16  2  0
 18 16  1  0
 19 18  2  0
 19 12  1  0
 19 11  1  0
 20  1  2  0
 21  1  1  0
 22  1  1  0
  2 23  1  0
  2 24  1  0
  4 25  1  1
  6 26  1  1
  7 27  1  0
  8 28  1  6
  9 29  1  0
 10 30  1  1
 12 31  1  0
 15 32  1  0
 18 33  1  0
 21 34  1  0
 22 35  1  0
M  END
