
     RDKit          3D

 34 35  0  0  0  0  0  0  0  0999 V2000
   11.8563   35.9046   27.4699 P   0  0  0  0  0  0  0  0  0  0  0  0
   10.5589   35.1380   27.5803 O   0  0  0  0  0  0  0  0  0  0  0  0
   11.6022   37.3426   26.6396 O   0  0  0  0  0  0  0  0  0  0  0  0
   13.0238   34.9887   26.6861 O   0  0  0  0  0  0  0  0  0  0  0  0
   13.4561   37.0422   29.1469 C   0  0  0  0  0  0  0  0  0  0  0  0
   12.3619   36.1730   29.0523 O   0  0  0  0  0  0  0  0  0  0  0  0
   12.8530   38.3801   29.6200 C   0  0  1  0  0  0  0  0  0  0  0  0
   13.8481   39.3638   29.7905 O   0  0  0  0  0  0  0  0  0  0  0  0
   11.8030   38.9087   28.6321 C   0  0  1  0  0  0  0  0  0  0  0  0
   10.7058   39.4788   29.3137 O   0  0  0  0  0  0  0  0  0  0  0  0
   12.5666   39.9501   27.8530 C   0  0  1  0  0  0  0  0  0  0  0  0
   11.7261   40.9870   27.4164 O   0  0  0  0  0  0  0  0  0  0  0  0
   13.5745   40.4310   28.9019 C   0  0  2  0  0  0  0  0  0  0  0  0
   14.8432   40.9159   28.3179 N   0  0  0  0  0  0  0  0  0  0  0  0
   15.6207   40.1056   27.5209 C   0  0  0  0  0  0  0  0  0  0  0  0
   15.2340   38.9545   27.1988 O   0  0  0  0  0  0  0  0  0  0  0  0
   16.8278   40.5294   27.0688 N   0  0  0  0  0  0  0  0  0  0  0  0
   17.3083   41.7499   27.3955 C   0  0  0  0  0  0  0  0  0  0  0  0
   18.4354   42.1115   26.9660 O   0  0  0  0  0  0  0  0  0  0  0  0
   16.5544   42.5951   28.2078 C   0  0  0  0  0  0  0  0  0  0  0  0
   15.3128   42.1531   28.6674 C   0  0  0  0  0  0  0  0  0  0  0  0
   12.4747   37.5539   26.2212 H   0  0  0  0  0  0  0  0  0  0  0  0
   13.0675   34.1427   27.1992 H   0  0  0  0  0  0  0  0  0  0  0  0
   14.1880   36.6728   29.8991 H   0  0  0  0  0  0  0  0  0  0  0  0
   13.9379   37.1600   28.1554 H   0  0  0  0  0  0  0  0  0  0  0  0
   12.3782   38.2025   30.6115 H   0  0  0  0  0  0  0  0  0  0  0  0
   11.4179   38.1234   27.9450 H   0  0  0  0  0  0  0  0  0  0  0  0
   10.0015   38.7876   29.4236 H   0  0  0  0  0  0  0  0  0  0  0  0
   13.0676   39.4755   26.9809 H   0  0  0  0  0  0  0  0  0  0  0  0
   11.1953   40.6211   26.6613 H   0  0  0  0  0  0  0  0  0  0  0  0
   13.0950   41.2400   29.5006 H   0  0  0  0  0  0  0  0  0  0  0  0
   17.4010   39.8985   26.4622 H   0  0  0  0  0  0  0  0  0  0  0  0
   16.9237   43.5748   28.4849 H   0  0  0  0  0  0  0  0  0  0  0  0
   14.7354   42.8068   29.3101 H   0  0  0  0  0  0  0  0  0  0  0  0
  2  1  2  0
  3  1  1  0
  4  1  1  0
  6  5  1  0
  6  1  1  0
  7  5  1  0
  8  7  1  0
  9  7  1  0
  9 10  1  0
 11  9  1  0
 11 12  1  0
 13 11  1  0
 13  8  1  0
 13 14  1  0
 15 14  1  0
 16 15  2  0
 17 15  1  0
 18 17  1  0
 19 18  2  0
 20 18  1  0
 21 20  2  0
 21 14  1  0
  3 22  1  0
  4 23  1  0
  5 24  1  0
  5 25  1  0
  7 26  1  1
  9 27  1  6
 10 28  1  0
 11 29  1  6
 12 30  1  0
 13 31  1  1
 17 32  1  0
 20 33  1  0
 21 34  1  0
M  END
