
     RDKit          3D

 24 25  0  0  0  0  0  0  0  0999 V2000
   26.2329   20.8764    5.8567 C   0  0  0  0  0  0  0  0  0  0  0  0
   25.4205   20.2330    5.1379 O   0  0  0  0  0  0  0  0  0  0  0  0
   25.7941   21.9812    6.5654 O   0  0  0  0  0  0  0  0  0  0  0  0
   33.5023   17.6975    5.6478 C   0  0  0  0  0  0  0  0  0  0  0  0
   34.0177   16.9381    4.7826 O   0  0  0  0  0  0  0  0  0  0  0  0
   34.2668   18.1339    6.7146 O   0  0  0  0  0  0  0  0  0  0  0  0
   31.6408   19.2241    6.2658 C   0  0  0  0  0  0  0  0  0  0  0  0
   32.1002   18.1248    5.5256 C   0  0  0  0  0  0  0  0  0  0  0  0
   31.2215   17.4467    4.6634 C   0  0  0  0  0  0  0  0  0  0  0  0
   29.8969   17.8660    4.5351 C   0  0  0  0  0  0  0  0  0  0  0  0
   29.4341   18.9637    5.2732 C   0  0  0  0  0  0  0  0  0  0  0  0
   28.1048   19.3867    5.1584 C   0  0  0  0  0  0  0  0  0  0  0  0
   27.6411   20.4658    5.9249 C   0  0  0  0  0  0  0  0  0  0  0  0
   28.5218   21.1387    6.7855 C   0  0  0  0  0  0  0  0  0  0  0  0
   29.8502   20.7376    6.8933 C   0  0  0  0  0  0  0  0  0  0  0  0
   30.3145   19.6466    6.1490 C   0  0  0  0  0  0  0  0  0  0  0  0
   25.0109   22.5331    6.2365 H   0  0  0  0  0  0  0  0  0  0  0  0
   34.2791   17.6237    7.5897 H   0  0  0  0  0  0  0  0  0  0  0  0
   32.3132   19.7468    6.9371 H   0  0  0  0  0  0  0  0  0  0  0  0
   31.5624   16.5995    4.0813 H   0  0  0  0  0  0  0  0  0  0  0  0
   29.2360   17.3326    3.8621 H   0  0  0  0  0  0  0  0  0  0  0  0
   27.4273   18.8603    4.4956 H   0  0  0  0  0  0  0  0  0  0  0  0
   28.1832   21.9787    7.3795 H   0  0  0  0  0  0  0  0  0  0  0  0
   30.5113   21.2720    7.5655 H   0  0  0  0  0  0  0  0  0  0  0  0
  2  1  2  0
  3  1  1  0
  5  4  2  0
  6  4  1  0
  8  7  2  0
  8  4  1  0
  9  8  1  0
 10  9  2  0
 11 10  1  0
 12 11  1  0
 13  1  1  0
 13 12  2  0
 14 13  1  0
 15 14  2  0
 16 11  2  0
 16 15  1  0
 16  7  1  0
  3 17  1  0
  6 18  1  0
  7 19  1  0
  9 20  1  0
 10 21  1  0
 12 22  1  0
 14 23  1  0
 15 24  1  0
M  END
