
     RDKit          3D

 24 25  0  0  0  0  0  0  0  0999 V2000
   25.3630   18.4677    5.7145 C   0  0  0  0  0  0  0  0  0  0  0  0
   24.5437   17.8331    4.9956 O   0  0  0  0  0  0  0  0  0  0  0  0
   24.9382   19.5823    6.4163 O   0  0  0  0  0  0  0  0  0  0  0  0
   33.1170   16.8505    5.2114 C   0  0  0  0  0  0  0  0  0  0  0  0
   34.0632   17.5881    4.8223 O   0  0  0  0  0  0  0  0  0  0  0  0
   33.3933   15.5836    5.6928 O   0  0  0  0  0  0  0  0  0  0  0  0
   30.7382   16.6756    5.9103 C   0  0  0  0  0  0  0  0  0  0  0  0
   31.7277   17.3306    5.1623 C   0  0  0  0  0  0  0  0  0  0  0  0
   31.3874   18.4481    4.3808 C   0  0  0  0  0  0  0  0  0  0  0  0
   30.0722   18.9130    4.3510 C   0  0  0  0  0  0  0  0  0  0  0  0
   29.0808   18.2610    5.0966 C   0  0  0  0  0  0  0  0  0  0  0  0
   27.7567   18.7140    5.0665 C   0  0  0  0  0  0  0  0  0  0  0  0
   26.7647   18.0364    5.7899 C   0  0  0  0  0  0  0  0  0  0  0  0
   27.1089   16.9204    6.5676 C   0  0  0  0  0  0  0  0  0  0  0  0
   28.4258   16.4728    6.6190 C   0  0  0  0  0  0  0  0  0  0  0  0
   29.4176   17.1298    5.8811 C   0  0  0  0  0  0  0  0  0  0  0  0
   24.7939   19.5427    7.4182 H   0  0  0  0  0  0  0  0  0  0  0  0
   33.6989   15.4450    6.6487 H   0  0  0  0  0  0  0  0  0  0  0  0
   30.9944   15.8092    6.5101 H   0  0  0  0  0  0  0  0  0  0  0  0
   32.1408   18.9677    3.8019 H   0  0  0  0  0  0  0  0  0  0  0  0
   29.8306   19.7785    3.7453 H   0  0  0  0  0  0  0  0  0  0  0  0
   27.4954   19.5740    4.4602 H   0  0  0  0  0  0  0  0  0  0  0  0
   26.3573   16.3892    7.1387 H   0  0  0  0  0  0  0  0  0  0  0  0
   28.6673   15.6079    7.2257 H   0  0  0  0  0  0  0  0  0  0  0  0
  2  1  2  0
  3  1  1  0
  5  4  2  0
  6  4  1  0
  8  7  2  0
  8  4  1  0
  9  8  1  0
 10  9  2  0
 11 10  1  0
 12 11  1  0
 13  1  1  0
 13 12  2  0
 14 13  1  0
 15 14  2  0
 16 11  2  0
 16 15  1  0
 16  7  1  0
  3 17  1  0
  6 18  1  0
  7 19  1  0
  9 20  1  0
 10 21  1  0
 12 22  1  0
 14 23  1  0
 15 24  1  0
M  END
