
     RDKit          3D

 24 25  0  0  0  0  0  0  0  0999 V2000
   26.5623   19.9733    5.1025 C   0  0  0  0  0  0  0  0  0  0  0  0
   26.0100   20.4799    6.1169 O   0  0  0  0  0  0  0  0  0  0  0  0
   25.8606   19.8853    3.9129 O   0  0  0  0  0  0  0  0  0  0  0  0
   33.7135   16.9102    6.6744 C   0  0  0  0  0  0  0  0  0  0  0  0
   34.4541   16.8971    5.6535 O   0  0  0  0  0  0  0  0  0  0  0  0
   34.2224   16.4949    7.8916 O   0  0  0  0  0  0  0  0  0  0  0  0
   31.9163   18.1480    5.4847 C   0  0  0  0  0  0  0  0  0  0  0  0
   32.3193   17.3690    6.5793 C   0  0  0  0  0  0  0  0  0  0  0  0
   31.3861   17.0221    7.5713 C   0  0  0  0  0  0  0  0  0  0  0  0
   30.0596   17.4427    7.4687 C   0  0  0  0  0  0  0  0  0  0  0  0
   29.6532   18.2214    6.3768 C   0  0  0  0  0  0  0  0  0  0  0  0
   28.3270   18.6559    6.2692 C   0  0  0  0  0  0  0  0  0  0  0  0
   27.9361   19.4619    5.1902 C   0  0  0  0  0  0  0  0  0  0  0  0
   28.8717   19.8070    4.2031 C   0  0  0  0  0  0  0  0  0  0  0  0
   30.1886   19.3648    4.2910 C   0  0  0  0  0  0  0  0  0  0  0  0
   30.5921   18.5794    5.3773 C   0  0  0  0  0  0  0  0  0  0  0  0
   25.8702   20.6473    3.2454 H   0  0  0  0  0  0  0  0  0  0  0  0
   35.1917   16.6611    8.1348 H   0  0  0  0  0  0  0  0  0  0  0  0
   32.6340   18.4235    4.7198 H   0  0  0  0  0  0  0  0  0  0  0  0
   31.6805   16.4169    8.4197 H   0  0  0  0  0  0  0  0  0  0  0  0
   29.3542   17.1615    8.2418 H   0  0  0  0  0  0  0  0  0  0  0  0
   27.6093   18.3905    7.0372 H   0  0  0  0  0  0  0  0  0  0  0  0
   28.5860   20.4224    3.3588 H   0  0  0  0  0  0  0  0  0  0  0  0
   30.8936   19.6451    3.5171 H   0  0  0  0  0  0  0  0  0  0  0  0
  2  1  2  0
  3  1  1  0
  5  4  2  0
  6  4  1  0
  8  7  2  0
  8  4  1  0
  9  8  1  0
 10  9  2  0
 11 10  1  0
 12 11  1  0
 13  1  1  0
 13 12  2  0
 14 13  1  0
 15 14  2  0
 16 11  2  0
 16 15  1  0
 16  7  1  0
  3 17  1  0
  6 18  1  0
  7 19  1  0
  9 20  1  0
 10 21  1  0
 12 22  1  0
 14 23  1  0
 15 24  1  0
M  END
