
     RDKit          3D

 42 45  0  0  0  0  0  0  0  0999 V2000
   -8.6073  -31.8433    4.7175 Cl  0  0  0  0  0  0  0  0  0  0  0  0
  -10.3628  -33.3775    3.3310 C   0  0  0  0  0  0  0  0  0  0  0  0
   -9.0235  -33.2422    3.7447 C   0  0  0  0  0  0  0  0  0  0  0  0
   -8.0553  -34.2117    3.3876 C   0  0  0  0  0  0  0  0  0  0  0  0
  -10.7632  -34.4796    2.5689 C   0  0  0  0  0  0  0  0  0  0  0  0
   -7.7781  -36.3804    2.2375 N   0  0  0  0  0  0  0  0  0  0  0  0
   -8.6205  -37.1877    1.5615 C   0  0  0  0  0  0  0  0  0  0  0  0
   -9.8900  -36.6252    1.5377 C   0  0  0  0  0  0  0  0  0  0  0  0
   -9.7987  -35.4399    2.2493 C   0  0  0  0  0  0  0  0  0  0  0  0
   -8.4971  -35.3189    2.6511 C   0  0  0  0  0  0  0  0  0  0  0  0
  -11.1224  -37.1098    0.9016 C   0  0  0  0  0  0  0  0  0  0  0  0
  -11.2771  -37.9275   -0.1552 C   0  0  0  0  0  0  0  0  0  0  0  0
  -10.2842  -38.5629   -0.9599 N   0  0  0  0  0  0  0  0  0  0  0  0
  -11.0357  -39.2974   -1.9254 C   0  0  0  0  0  0  0  0  0  0  0  0
  -12.4522  -39.1626   -1.7865 N   0  0  0  0  0  0  0  0  0  0  0  0
  -12.5854  -38.2848   -0.6825 C   0  0  0  0  0  0  0  0  0  0  0  0
  -10.4893  -39.9727   -2.8343 O   0  0  0  0  0  0  0  0  0  0  0  0
  -13.6839  -37.8666   -0.2305 O   0  0  0  0  0  0  0  0  0  0  0  0
  -13.5173  -39.6659   -2.6640 C   0  0  0  0  0  0  0  0  0  0  0  0
  -13.8269  -41.1317   -2.4183 C   0  0  0  0  0  0  0  0  0  0  0  0
  -14.5249  -41.5528   -1.2679 C   0  0  0  0  0  0  0  0  0  0  0  0
  -14.8335  -42.9106   -1.0788 C   0  0  0  0  0  0  0  0  0  0  0  0
  -14.4605  -43.8568   -2.0414 C   0  0  0  0  0  0  0  0  0  0  0  0
  -13.7779  -43.4413   -3.1872 C   0  0  0  0  0  0  0  0  0  0  0  0
  -13.4641  -42.0911   -3.3758 C   0  0  0  0  0  0  0  0  0  0  0  0
   -6.6241  -34.0987    3.8326 C   0  0  0  0  0  0  0  0  0  0  0  0
  -13.4131  -44.3486   -4.1229 F   0  0  0  0  0  0  0  0  0  0  0  0
  -14.7430  -45.1756   -1.8647 F   0  0  0  0  0  0  0  0  0  0  0  0
  -11.0939  -32.6269    3.6035 H   0  0  0  0  0  0  0  0  0  0  0  0
  -11.7932  -34.5744    2.2546 H   0  0  0  0  0  0  0  0  0  0  0  0
   -6.7693  -36.5750    2.4214 H   0  0  0  0  0  0  0  0  0  0  0  0
   -8.3106  -38.1395    1.1719 H   0  0  0  0  0  0  0  0  0  0  0  0
  -12.0369  -36.7403    1.3455 H   0  0  0  0  0  0  0  0  0  0  0  0
   -9.2800  -38.3205   -1.0709 H   0  0  0  0  0  0  0  0  0  0  0  0
  -14.4360  -39.0589   -2.5120 H   0  0  0  0  0  0  0  0  0  0  0  0
  -13.2206  -39.5173   -3.7249 H   0  0  0  0  0  0  0  0  0  0  0  0
  -14.8247  -40.8310   -0.5185 H   0  0  0  0  0  0  0  0  0  0  0  0
  -15.3624  -43.2245   -0.1883 H   0  0  0  0  0  0  0  0  0  0  0  0
  -12.9358  -41.7913   -4.2726 H   0  0  0  0  0  0  0  0  0  0  0  0
   -6.4024  -34.8958    4.5724 H   0  0  0  0  0  0  0  0  0  0  0  0
   -5.9320  -34.1969    2.9713 H   0  0  0  0  0  0  0  0  0  0  0  0
   -6.4152  -33.1096    4.2882 H   0  0  0  0  0  0  0  0  0  0  0  0
  3  2  2  0
  3  1  1  0
  4  3  1  0
  5  2  1  0
  7  6  1  0
  8  7  2  0
  9  8  1  0
  9  5  2  0
 10  9  1  0
 10  6  1  0
 10  4  2  0
 11  8  1  0
 12 11  2  3
 13 12  1  0
 14 13  1  0
 15 14  1  0
 16 15  1  0
 16 12  1  0
 17 14  2  0
 18 16  2  0
 19 15  1  0
 20 19  1  0
 21 20  2  0
 22 21  1  0
 23 22  2  0
 24 23  1  0
 25 24  2  0
 25 20  1  0
 26  4  1  0
 27 24  1  0
 28 23  1  0
  2 29  1  0
  5 30  1  0
  6 31  1  0
  7 32  1  0
 11 33  1  0
 13 34  1  0
 19 35  1  0
 19 36  1  0
 21 37  1  0
 22 38  1  0
 25 39  1  0
 26 40  1  0
 26 41  1  0
 26 42  1  0
M  END
