
     RDKit          3D

 42 45  0  0  0  0  0  0  0  0999 V2000
  -31.6664   -8.0874   -7.3223 Cl  0  0  0  0  0  0  0  0  0  0  0  0
  -33.9019   -7.3780   -8.6629 C   0  0  0  0  0  0  0  0  0  0  0  0
  -33.1205   -8.4606   -8.2208 C   0  0  0  0  0  0  0  0  0  0  0  0
  -33.5087   -9.8000   -8.4870 C   0  0  0  0  0  0  0  0  0  0  0  0
  -35.0793   -7.6065   -9.3739 C   0  0  0  0  0  0  0  0  0  0  0  0
  -35.2532  -11.1523   -9.6103 N   0  0  0  0  0  0  0  0  0  0  0  0
  -36.3799  -10.8279  -10.2844 C   0  0  0  0  0  0  0  0  0  0  0  0
  -36.5392   -9.4419  -10.2998 C   0  0  0  0  0  0  0  0  0  0  0  0
  -35.4465   -8.9315   -9.6295 C   0  0  0  0  0  0  0  0  0  0  0  0
  -34.6873   -9.9918   -9.2199 C   0  0  0  0  0  0  0  0  0  0  0  0
  -37.5280   -8.5743  -10.9766 C   0  0  0  0  0  0  0  0  0  0  0  0
  -38.3496   -8.8455  -12.0016 C   0  0  0  0  0  0  0  0  0  0  0  0
  -38.5925  -10.1014  -12.6304 N   0  0  0  0  0  0  0  0  0  0  0  0
  -39.5443   -9.8072  -13.6500 C   0  0  0  0  0  0  0  0  0  0  0  0
  -39.9089   -8.4336  -13.7114 N   0  0  0  0  0  0  0  0  0  0  0  0
  -39.1666   -7.8356  -12.6712 C   0  0  0  0  0  0  0  0  0  0  0  0
  -40.0094  -10.6822  -14.4239 O   0  0  0  0  0  0  0  0  0  0  0  0
  -39.2130   -6.6085  -12.3860 O   0  0  0  0  0  0  0  0  0  0  0  0
  -40.8397   -7.7718  -14.6155 C   0  0  0  0  0  0  0  0  0  0  0  0
  -42.2339   -8.2867  -14.4038 C   0  0  0  0  0  0  0  0  0  0  0  0
  -42.9835   -7.9230  -13.2688 C   0  0  0  0  0  0  0  0  0  0  0  0
  -44.2839   -8.4063  -13.1004 C   0  0  0  0  0  0  0  0  0  0  0  0
  -44.8402   -9.2477  -14.0667 C   0  0  0  0  0  0  0  0  0  0  0  0
  -44.0939   -9.6118  -15.1930 C   0  0  0  0  0  0  0  0  0  0  0  0
  -42.7967   -9.1391  -15.3578 C   0  0  0  0  0  0  0  0  0  0  0  0
  -32.6663  -10.9692   -8.0562 C   0  0  0  0  0  0  0  0  0  0  0  0
  -44.6215  -10.4167  -16.1416 F   0  0  0  0  0  0  0  0  0  0  0  0
  -46.1090   -9.6925  -13.9219 F   0  0  0  0  0  0  0  0  0  0  0  0
  -33.5965   -6.3612   -8.4500 H   0  0  0  0  0  0  0  0  0  0  0  0
  -35.6731   -6.7651   -9.6995 H   0  0  0  0  0  0  0  0  0  0  0  0
  -34.8910  -12.1195   -9.4601 H   0  0  0  0  0  0  0  0  0  0  0  0
  -37.0044  -11.5688  -10.7497 H   0  0  0  0  0  0  0  0  0  0  0  0
  -37.5486   -7.5469  -10.6444 H   0  0  0  0  0  0  0  0  0  0  0  0
  -38.3813  -11.0575  -12.2822 H   0  0  0  0  0  0  0  0  0  0  0  0
  -40.5113   -7.9240  -15.6668 H   0  0  0  0  0  0  0  0  0  0  0  0
  -40.8178   -6.6757  -14.4320 H   0  0  0  0  0  0  0  0  0  0  0  0
  -42.5718   -7.2511  -12.5286 H   0  0  0  0  0  0  0  0  0  0  0  0
  -44.8615   -8.1178  -12.2317 H   0  0  0  0  0  0  0  0  0  0  0  0
  -42.2334   -9.4333  -16.2352 H   0  0  0  0  0  0  0  0  0  0  0  0
  -31.6371  -10.8499   -8.4541 H   0  0  0  0  0  0  0  0  0  0  0  0
  -33.0925  -11.9237   -8.4271 H   0  0  0  0  0  0  0  0  0  0  0  0
  -32.6223  -11.0552   -6.9517 H   0  0  0  0  0  0  0  0  0  0  0  0
  3  2  2  0
  3  1  1  0
  4  3  1  0
  5  2  1  0
  7  6  1  0
  8  7  2  0
  9  8  1  0
  9  5  2  0
 10  6  1  0
 10  9  1  0
 10  4  2  0
 11  8  1  0
 12 11  2  3
 13 12  1  0
 14 13  1  0
 15 14  1  0
 16 15  1  0
 16 12  1  0
 17 14  2  0
 18 16  2  0
 19 15  1  0
 20 19  1  0
 21 20  2  0
 22 21  1  0
 23 22  2  0
 24 23  1  0
 25 24  2  0
 25 20  1  0
 26  4  1  0
 27 24  1  0
 28 23  1  0
  2 29  1  0
  5 30  1  0
  6 31  1  0
  7 32  1  0
 11 33  1  0
 13 34  1  0
 19 35  1  0
 19 36  1  0
 21 37  1  0
 22 38  1  0
 25 39  1  0
 26 40  1  0
 26 41  1  0
 26 42  1  0
M  END
