
     RDKit          3D

 18 19  0  0  0  0  0  0  0  0999 V2000
    2.7477   15.9496   33.2425 C   0  0  0  0  0  0  0  0  0  0  0  0
    2.4770   17.2050   33.7295 N   0  0  0  0  0  0  0  0  0  0  0  0
    1.5843   18.0314   33.1045 C   0  0  0  0  0  0  0  0  0  0  0  0
    0.9487   17.5532   31.9393 C   0  0  0  0  0  0  0  0  0  0  0  0
    1.2460   16.2901   31.4808 C   0  0  0  0  0  0  0  0  0  0  0  0
    2.1318   15.4903   32.1152 N   0  0  0  0  0  0  0  0  0  0  0  0
    0.0153   18.0595   31.0326 C   0  0  0  0  0  0  0  0  0  0  0  0
   -0.1873   17.0583   30.0798 C   0  0  0  0  0  0  0  0  0  0  0  0
    0.5691   15.9753   30.3606 N   0  0  0  0  0  0  0  0  0  0  0  0
   -0.6248   19.3413   31.0098 C   0  0  0  0  0  0  0  0  0  0  0  0
   -1.1103   20.3898   30.9665 N   0  0  0  0  0  0  0  0  0  0  0  0
    1.3508   19.1810   33.5715 O   0  0  0  0  0  0  0  0  0  0  0  0
    3.6758   15.1085   33.9129 N   0  0  0  0  0  0  0  0  0  0  0  0
   -1.3640   17.1699   28.5632 Br  0  0  0  0  0  0  0  0  0  0  0  0
    2.9603   17.5369   34.5950 H   0  0  0  0  0  0  0  0  0  0  0  0
    0.6204   15.0836   29.8198 H   0  0  0  0  0  0  0  0  0  0  0  0
    3.6599   14.0744   33.7689 H   0  0  0  0  0  0  0  0  0  0  0  0
    4.3867   15.5167   34.5596 H   0  0  0  0  0  0  0  0  0  0  0  0
  2  1  1  0
  3  2  1  0
  4  3  1  0
  5  4  2  0
  6  5  1  0
  6  1  2  0
  7  4  1  0
  8  7  2  0
  9  5  1  0
  9  8  1  0
 10  7  1  0
 11 10  3  0
 12  3  2  0
 13  1  1  0
 14  8  1  0
  2 15  1  0
  9 16  1  0
 13 17  1  0
 13 18  1  0
M  END
