
     RDKit          3D

 23 22  0  0  0  0  0  0  0  0999 V2000
  105.5118   31.2071   47.9772 P   0  0  0  0  0  0  0  0  0  0  0  0
  104.6590   28.7550   46.5293 P   0  0  0  0  0  0  0  0  0  0  0  0
  104.1297   31.3142   44.8256 C   0  0  0  0  0  0  0  0  0  0  0  0
  103.2051   31.7170   43.6751 C   0  0  0  0  0  0  0  0  0  0  0  0
  103.0442   33.1636   43.5933 N   0  0  0  0  0  0  0  0  0  0  0  0
  103.3804   31.2285   46.1608 C   0  0  0  0  0  0  0  0  0  0  0  0
  104.0859   30.3529   47.2189 C   0  0  0  0  0  0  0  0  0  0  0  0
  106.2947   28.5138   46.8305 O   0  0  0  0  0  0  0  0  0  0  0  0
  104.4199   28.7102   44.8702 O   0  0  0  0  0  0  0  0  0  0  0  0
  103.8715   27.6355   47.1699 O   0  0  0  0  0  0  0  0  0  0  0  0
  103.1756   30.0844   48.2524 O   0  0  0  0  0  0  0  0  0  0  0  0
  105.7383   32.6039   47.4361 O   0  0  0  0  0  0  0  0  0  0  0  0
  106.8553   30.2591   47.6498 O   0  0  0  0  0  0  0  0  0  0  0  0
  105.3100   31.2932   49.6382 O   0  0  0  0  0  0  0  0  0  0  0  0
  104.9820   32.0237   44.9016 H   0  0  0  0  0  0  0  0  0  0  0  0
  104.5491   30.3256   44.5616 H   0  0  0  0  0  0  0  0  0  0  0  0
  102.2086   31.2319   43.7595 H   0  0  0  0  0  0  0  0  0  0  0  0
  103.6511   31.3645   42.7193 H   0  0  0  0  0  0  0  0  0  0  0  0
  102.0336   33.3891   43.4441 H   0  0  0  0  0  0  0  0  0  0  0  0
  103.5787   33.5195   42.7681 H   0  0  0  0  0  0  0  0  0  0  0  0
  102.3547   30.8290   46.0044 H   0  0  0  0  0  0  0  0  0  0  0  0
  103.2642   32.2593   46.5618 H   0  0  0  0  0  0  0  0  0  0  0  0
  103.6443   30.2190   49.1180 H   0  0  0  0  0  0  0  0  0  0  0  0
  4  3  1  0
  5  4  1  0
  6  3  1  0
  7  6  1  0
  7  2  1  0
  7  1  1  0
  8  2  1  0
  9  2  1  0
 10  2  2  0
  7 11  1  0
 12  1  2  0
 13  1  1  0
 14  1  1  0
  3 15  1  0
  3 16  1  0
  4 17  1  0
  4 18  1  0
  5 19  1  0
  5 20  1  0
  6 21  1  0
  6 22  1  0
 11 23  1  0
M  CHG  4   8  -1   9  -1  13  -1  14  -1
M  END
