
     RDKit          3D

 45 49  0  0  0  0  0  0  0  0999 V2000
    7.9684   10.9725    5.6722 C   0  0  0  0  0  0  0  0  0  0  0  0
    8.3647   10.2246    6.7804 C   0  0  0  0  0  0  0  0  0  0  0  0
    6.6206   10.9834    5.3002 C   0  0  0  0  0  0  0  0  0  0  0  0
    7.4168    9.5053    7.5018 C   0  0  0  0  0  0  0  0  0  0  0  0
    4.0178    7.0221   13.1903 C   0  0  0  0  0  0  0  0  0  0  0  0
    1.9206    8.1317   12.7092 C   0  0  0  0  0  0  0  0  0  0  0  0
    4.4293    7.2270   11.8709 C   0  0  0  0  0  0  0  0  0  0  0  0
    2.3246    8.3304   11.3971 C   0  0  0  0  0  0  0  0  0  0  0  0
    4.6704    7.2091    5.1270 C   0  0  0  0  0  0  0  0  0  0  0  0
    4.2762    6.6959    3.8767 C   0  0  0  0  0  0  0  0  0  0  0  0
    2.3289    7.3364    5.8144 C   0  0  0  0  0  0  0  0  0  0  0  0
    0.8636    6.1369    2.7308 C   0  0  0  0  0  0  0  0  0  0  0  0
    2.3291    7.2972   15.0155 C   0  0  0  0  0  0  0  0  0  0  0  0
    2.7636    7.4822   13.6196 C   0  0  0  0  0  0  0  0  0  0  0  0
    3.5856    7.8888   10.9658 C   0  0  0  0  0  0  0  0  0  0  0  0
    3.6954    7.5455    6.0965 C   0  0  0  0  0  0  0  0  0  0  0  0
    6.0789    9.5253    7.0917 C   0  0  0  0  0  0  0  0  0  0  0  0
    2.9138    6.5227    3.6416 C   0  0  0  0  0  0  0  0  0  0  0  0
    1.9822    6.8256    4.5783 C   0  0  0  0  0  0  0  0  0  0  0  0
    1.0985    6.6389   15.2950 N   0  0  0  0  0  0  0  0  0  0  0  0
    5.7095   10.2673    6.0122 N   0  0  0  0  0  0  0  0  0  0  0  0
    3.3907    7.5614    8.5226 N   0  0  0  0  0  0  0  0  0  0  0  0
    5.0536    8.8777    9.2268 N   0  0  0  0  0  0  0  0  0  0  0  0
    3.0323    7.7285   15.9679 O   0  0  0  0  0  0  0  0  0  0  0  0
    2.2801    6.0682    2.5029 O   0  0  0  0  0  0  0  0  0  0  0  0
    0.7192    6.5736    4.0871 O   0  0  0  0  0  0  0  0  0  0  0  0
    4.0068    8.1096    9.5799 C   0  0  0  0  0  0  0  0  0  0  0  0
    4.0574    7.9875    7.4458 C   0  0  0  0  0  0  0  0  0  0  0  0
    5.0868    8.8027    7.8815 C   0  0  0  0  0  0  0  0  0  0  0  0
    8.6962   11.5397    5.1066 H   0  0  0  0  0  0  0  0  0  0  0  0
    9.4040   10.2095    7.0822 H   0  0  0  0  0  0  0  0  0  0  0  0
    6.2991   11.5615    4.4443 H   0  0  0  0  0  0  0  0  0  0  0  0
    7.7289    8.9307    8.3656 H   0  0  0  0  0  0  0  0  0  0  0  0
    4.6837    6.5178   13.8798 H   0  0  0  0  0  0  0  0  0  0  0  0
    0.9335    8.4644   13.0050 H   0  0  0  0  0  0  0  0  0  0  0  0
    5.4056    6.8732   11.5635 H   0  0  0  0  0  0  0  0  0  0  0  0
    1.6207    8.8087   10.7345 H   0  0  0  0  0  0  0  0  0  0  0  0
    5.7254    7.3120    5.3439 H   0  0  0  0  0  0  0  0  0  0  0  0
    5.0082    6.4391    3.1226 H   0  0  0  0  0  0  0  0  0  0  0  0
    1.5491    7.5864    6.5221 H   0  0  0  0  0  0  0  0  0  0  0  0
    0.4044    5.1349    2.5991 H   0  0  0  0  0  0  0  0  0  0  0  0
    0.4021    6.8752    2.0416 H   0  0  0  0  0  0  0  0  0  0  0  0
    1.0986    5.6362   15.5865 H   0  0  0  0  0  0  0  0  0  0  0  0
    0.1894    7.1519   15.2904 H   0  0  0  0  0  0  0  0  0  0  0  0
    2.5702    6.9192    8.5175 H   0  0  0  0  0  0  0  0  0  0  0  0
  2  1  2  0
  3  1  1  0
  4  2  1  0
  7  5  2  0
  8  6  1  0
 10  9  2  0
 14 13  1  0
 14  6  2  0
 14  5  1  0
 15  8  2  0
 15  7  1  0
 16 11  2  0
 16  9  1  0
 17  4  2  0
 18 10  1  0
 19 18  2  0
 19 11  1  0
 20 13  1  0
 21 17  1  0
 21  3  2  0
 24 13  2  0
 25 18  1  0
 25 12  1  0
 26 19  1  0
 26 12  1  0
 27 22  1  0
 27 15  1  0
 27 23  2  0
 28 16  1  0
 28 22  1  0
 29 28  2  0
 29 23  1  0
 29 17  1  0
  1 30  1  0
  2 31  1  0
  3 32  1  0
  4 33  1  0
  5 34  1  0
  6 35  1  0
  7 36  1  0
  8 37  1  0
  9 38  1  0
 10 39  1  0
 11 40  1  0
 12 41  1  0
 12 42  1  0
 20 43  1  0
 20 44  1  0
 22 45  1  0
M  END
