
     RDKit          3D

 30 29  0  0  0  0  0  0  0  0999 V2000
   40.2570    7.0212   11.3774 P   0  0  0  0  0  0  0  0  0  0  0  0
   38.8208    7.4657   11.5413 O   0  0  0  0  0  0  0  0  0  0  0  0
   40.3055    5.4154   10.9034 O   0  0  0  0  0  0  0  0  0  0  0  0
   41.0475    7.9561   10.2265 O   0  0  0  0  0  0  0  0  0  0  0  0
   45.6702    7.4998   14.6297 C   0  0  2  0  0  0  0  0  0  0  0  0
   45.3565    6.2339   15.1552 O   0  0  0  0  0  0  0  0  0  0  0  0
   46.9569    7.9750   15.1895 C   0  0  0  0  0  0  0  0  0  0  0  0
   47.1543    7.9575   16.4308 O   0  0  0  0  0  0  0  0  0  0  0  0
   47.8909    8.5234   14.3326 O   0  0  0  0  0  0  0  0  0  0  0  0
   44.5361    8.4996   14.9583 C   0  0  1  0  0  0  0  0  0  0  0  0
   44.9887    9.8393   14.9780 O   0  0  0  0  0  0  0  0  0  0  0  0
   43.3924    8.3301   13.9334 C   0  0  2  0  0  0  0  0  0  0  0  0
   43.6168    9.1309   12.7948 O   0  0  0  0  0  0  0  0  0  0  0  0
   41.9904    8.5555   14.5477 C   0  0  1  0  0  0  0  0  0  0  0  0
   41.8742    9.8374   15.1175 O   0  0  0  0  0  0  0  0  0  0  0  0
   40.8640    8.2912   13.5314 C   0  0  0  0  0  0  0  0  0  0  0  0
   41.1021    7.0841   12.8431 O   0  0  0  0  0  0  0  0  0  0  0  0
   41.2579    5.1561   10.9858 H   0  0  0  0  0  0  0  0  0  0  0  0
   40.5182    8.7905   10.1572 H   0  0  0  0  0  0  0  0  0  0  0  0
   45.7894    7.4271   13.5217 H   0  0  0  0  0  0  0  0  0  0  0  0
   45.8150    6.1649   16.0335 H   0  0  0  0  0  0  0  0  0  0  0  0
   48.7666    8.8905   14.6854 H   0  0  0  0  0  0  0  0  0  0  0  0
   44.1631    8.2609   15.9794 H   0  0  0  0  0  0  0  0  0  0  0  0
   45.3828   10.0234   15.8708 H   0  0  0  0  0  0  0  0  0  0  0  0
   43.4041    7.2716   13.5909 H   0  0  0  0  0  0  0  0  0  0  0  0
   43.4377   10.0767   13.0292 H   0  0  0  0  0  0  0  0  0  0  0  0
   41.8627    7.8173   15.3693 H   0  0  0  0  0  0  0  0  0  0  0  0
   41.2619   10.3814   14.5584 H   0  0  0  0  0  0  0  0  0  0  0  0
   39.8766    8.3437   14.0442 H   0  0  0  0  0  0  0  0  0  0  0  0
   40.8571    9.1047   12.7752 H   0  0  0  0  0  0  0  0  0  0  0  0
  2  1  2  0
  3  1  1  0
  4  1  1  0
  5  6  1  0
  7  5  1  0
  8  7  2  0
  9  7  1  0
 10  5  1  0
 10 11  1  0
 12 10  1  0
 12 13  1  0
 14 12  1  0
 14 15  1  0
 16 14  1  0
 17  1  1  0
 17 16  1  0
  3 18  1  0
  4 19  1  0
  5 20  1  6
  6 21  1  0
  9 22  1  0
 10 23  1  1
 11 24  1  0
 12 25  1  6
 13 26  1  0
 14 27  1  1
 15 28  1  0
 16 29  1  0
 16 30  1  0
M  END
