
     RDKit          3D

 57 61  0  0  0  0  0  0  0  0999 V2000
   -5.8101   -1.8736   26.5675 Cl  0  0  0  0  0  0  0  0  0  0  0  0
   -6.2648    0.5058   31.4450 Cl  0  0  0  0  0  0  0  0  0  0  0  0
   -6.6629   -0.8141   27.6617 C   0  0  0  0  0  0  0  0  0  0  0  0
   -6.1593   -0.5847   28.9450 C   0  0  0  0  0  0  0  0  0  0  0  0
   -6.8538    0.2491   29.8246 C   0  0  0  0  0  0  0  0  0  0  0  0
   -8.0330    0.8648   29.4225 C   0  0  0  0  0  0  0  0  0  0  0  0
   -8.5298    0.6362   28.1403 C   0  0  0  0  0  0  0  0  0  0  0  0
   -7.8504   -0.2083   27.2564 C   0  0  0  0  0  0  0  0  0  0  0  0
   -9.7296    1.2617   27.7457 N   0  0  0  0  0  0  0  0  0  0  0  0
  -11.0344    0.8258   28.0327 C   0  0  0  0  0  0  0  0  0  0  0  0
  -12.0054    1.5987   27.3580 N   0  0  0  0  0  0  0  0  0  0  0  0
  -11.3069    2.5115   26.4329 C   0  0  2  0  0  0  0  0  0  0  0  0
  -11.7689    3.9856   26.5061 C   0  0  0  0  0  0  0  0  0  0  0  0
  -12.2003    4.3608   25.1368 N   0  0  0  0  0  0  0  0  0  0  0  0
  -11.5475    3.4140   24.2351 C   0  0  0  0  0  0  0  0  0  0  0  0
  -11.5578    2.1060   24.9780 C   0  0  1  0  0  0  0  0  0  0  0  0
  -10.6701    1.0031   24.4318 C   0  0  0  0  0  0  0  0  0  0  0  0
  -11.1278   -0.3179   24.5626 C   0  0  0  0  0  0  0  0  0  0  0  0
  -10.3322   -1.3893   24.1654 C   0  0  0  0  0  0  0  0  0  0  0  0
   -9.0643   -1.1568   23.6282 C   0  0  0  0  0  0  0  0  0  0  0  0
   -8.5897    0.1526   23.4909 C   0  0  0  0  0  0  0  0  0  0  0  0
   -9.3851    1.2310   23.8905 C   0  0  0  0  0  0  0  0  0  0  0  0
   -8.2708   -2.2657   23.1805 C   0  0  0  0  0  0  0  0  0  0  0  0
   -7.6251   -3.1595   22.8317 N   0  0  0  0  0  0  0  0  0  0  0  0
  -11.8648    5.7308   24.7115 C   0  0  0  0  0  0  0  0  0  0  0  0
  -12.8246    6.7106   25.2814 C   0  0  0  0  0  0  0  0  0  0  0  0
  -13.0426    6.9267   26.9303 S   0  0  0  0  0  0  0  0  0  0  0  0
  -14.2306    8.1035   26.7856 C   0  0  0  0  0  0  0  0  0  0  0  0
  -14.4224    8.3877   25.4383 C   0  0  0  0  0  0  0  0  0  0  0  0
  -13.6400    7.5935   24.5799 C   0  0  0  0  0  0  0  0  0  0  0  0
  -15.3187    9.4608   24.9923 C   0  0  0  0  0  0  0  0  0  0  0  0
  -15.4378   10.5191   25.6623 O   0  0  0  0  0  0  0  0  0  0  0  0
  -16.0570    9.2946   23.8325 O   0  0  0  0  0  0  0  0  0  0  0  0
   -9.8709    2.3361   26.8403 C   0  0  0  0  0  0  0  0  0  0  0  0
   -8.9071    3.0419   26.4411 O   0  0  0  0  0  0  0  0  0  0  0  0
  -13.4371    1.3589   27.4527 C   0  0  0  0  0  0  0  0  0  0  0  0
  -11.3051   -0.1654   28.7617 O   0  0  0  0  0  0  0  0  0  0  0  0
   -5.2410   -1.0632   29.2617 H   0  0  0  0  0  0  0  0  0  0  0  0
   -8.5543    1.5242   30.1053 H   0  0  0  0  0  0  0  0  0  0  0  0
   -8.2393   -0.3992   26.2659 H   0  0  0  0  0  0  0  0  0  0  0  0
  -12.6300    4.0973   27.1980 H   0  0  0  0  0  0  0  0  0  0  0  0
  -10.9556    4.6501   26.8758 H   0  0  0  0  0  0  0  0  0  0  0  0
  -12.1182    3.3288   23.2838 H   0  0  0  0  0  0  0  0  0  0  0  0
  -10.5087    3.7417   24.0123 H   0  0  0  0  0  0  0  0  0  0  0  0
  -12.6113    1.7528   24.8930 H   0  0  0  0  0  0  0  0  0  0  0  0
  -12.0993   -0.5252   24.9948 H   0  0  0  0  0  0  0  0  0  0  0  0
  -10.7069   -2.4002   24.2747 H   0  0  0  0  0  0  0  0  0  0  0  0
   -7.6052    0.3394   23.0790 H   0  0  0  0  0  0  0  0  0  0  0  0
   -8.9736    2.2247   23.8024 H   0  0  0  0  0  0  0  0  0  0  0  0
  -11.9198    5.8207   23.6022 H   0  0  0  0  0  0  0  0  0  0  0  0
  -10.8267    6.0012   25.0088 H   0  0  0  0  0  0  0  0  0  0  0  0
  -14.7138    8.6024   27.6155 H   0  0  0  0  0  0  0  0  0  0  0  0
  -13.6560    7.6678   23.5000 H   0  0  0  0  0  0  0  0  0  0  0  0
  -16.6880   10.0182   23.5091 H   0  0  0  0  0  0  0  0  0  0  0  0
  -13.7100    0.4092   26.9476 H   0  0  0  0  0  0  0  0  0  0  0  0
  -13.7371    1.2980   28.5199 H   0  0  0  0  0  0  0  0  0  0  0  0
  -13.9859    2.1899   26.9628 H   0  0  0  0  0  0  0  0  0  0  0  0
  3  1  1  0
  4  3  2  0
  5  2  1  0
  5  4  1  0
  6  5  2  0
  7  6  1  0
  8  7  2  0
  8  3  1  0
  9  7  1  0
 10  9  1  0
 11 10  1  0
 12 11  1  1
 12 13  1  0
 14 13  1  0
 15 14  1  0
 16 15  1  0
 16 12  1  0
 16 17  1  0
 18 17  2  0
 19 18  1  0
 20 19  2  0
 21 20  1  0
 22 21  2  0
 22 17  1  0
 23 20  1  0
 24 23  3  0
 25 14  1  0
 26 25  1  0
 27 26  1  0
 28 27  1  0
 29 28  2  0
 30 29  1  0
 30 26  2  0
 31 29  1  0
 32 31  2  0
 33 31  1  0
 34 12  1  0
 34  9  1  0
 35 34  2  0
 36 11  1  0
 37 10  2  0
  4 38  1  0
  6 39  1  0
  8 40  1  0
 13 41  1  0
 13 42  1  0
 15 43  1  0
 15 44  1  0
 16 45  1  1
 18 46  1  0
 19 47  1  0
 21 48  1  0
 22 49  1  0
 25 50  1  0
 25 51  1  0
 28 52  1  0
 30 53  1  0
 33 54  1  0
 36 55  1  0
 36 56  1  0
 36 57  1  0
M  END
