
     RDKit          3D

 20 20  0  0  0  0  0  0  0  0999 V2000
    2.9350  -10.3714   73.4489 C   0  0  0  0  0  0  0  0  0  0  0  0
    1.2628  -13.5135   72.2196 N   0  0  0  0  0  0  0  0  0  0  0  0
    4.6114  -11.3269   71.2553 O   0  0  0  0  0  0  0  0  0  0  0  0
    5.2030  -10.2025   72.0507 S   0  0  0  0  0  0  0  0  0  0  0  0
    1.8958   -9.7562   74.1718 C   0  0  0  0  0  0  0  0  0  0  0  0
    5.4090   -9.0068   71.1739 O   0  0  0  0  0  0  0  0  0  0  0  0
    0.6387  -10.3885   74.2478 C   0  0  0  0  0  0  0  0  0  0  0  0
    6.6557  -10.7013   72.6763 O   0  0  0  0  0  0  0  0  0  0  0  0
    0.4288  -11.6238   73.6063 C   0  0  0  0  0  0  0  0  0  0  0  0
    4.1867   -9.7835   73.3398 O   0  0  0  0  0  0  0  0  0  0  0  0
    1.4717  -12.2469   72.8830 C   0  0  0  0  0  0  0  0  0  0  0  0
    0.7351  -13.5511   70.9557 O   0  0  0  0  0  0  0  0  0  0  0  0
    2.7258  -11.6042   72.8156 C   0  0  0  0  0  0  0  0  0  0  0  0
    1.5501  -14.5947   72.7747 O   0  0  0  0  0  0  0  0  0  0  0  0
    2.1308   -8.5330   74.7966 O   0  0  0  0  0  0  0  0  0  0  0  0
   -0.1704   -9.9264   74.7989 H   0  0  0  0  0  0  0  0  0  0  0  0
    6.5881  -10.5256   73.6488 H   0  0  0  0  0  0  0  0  0  0  0  0
   -0.5451  -12.0908   73.6765 H   0  0  0  0  0  0  0  0  0  0  0  0
    3.5428  -12.0560   72.2676 H   0  0  0  0  0  0  0  0  0  0  0  0
    2.5056   -7.7430   74.2849 H   0  0  0  0  0  0  0  0  0  0  0  0
  4  3  2  0
  5  1  2  0
  6  4  2  0
  7  5  1  0
  4  8  1  0
  9  7  2  0
 10  1  1  0
 10  4  1  0
 11  9  1  0
 11  2  1  0
 12  2  1  0
 13 11  2  0
 13  1  1  0
 14  2  2  0
 15  5  1  0
  7 16  1  0
  8 17  1  0
  9 18  1  0
 13 19  1  0
 15 20  1  0
M  CHG  2   2   1  12  -1
M  END
