
     RDKit          3D

 20 20  0  0  0  0  0  0  0  0999 V2000
    7.2006   31.6164   22.4844 C   0  0  0  0  0  0  0  0  0  0  0  0
    5.7097   28.9091   18.5690 O   0  0  0  0  0  0  0  0  0  0  0  0
    6.8979   31.4445   21.0548 C   0  0  0  0  0  0  0  0  0  0  0  0
    8.3701   31.4700   22.9237 O   0  0  0  0  0  0  0  0  0  0  0  0
    6.2911   30.1344   20.5611 C   0  0  2  0  0  0  0  0  0  0  0  0
    6.8759   28.9541   21.2092 N   0  0  0  0  0  0  0  0  0  0  0  0
    6.1787   31.9201   23.3632 O   0  0  0  0  0  0  0  0  0  0  0  0
    6.4418   30.0078   19.0412 C   0  0  2  0  0  0  0  0  0  0  0  0
    6.0527   31.2848   18.3474 C   0  0  0  0  0  0  0  0  0  0  0  0
    6.3689   32.4653   18.8862 C   0  0  0  0  0  0  0  0  0  0  0  0
    6.8812   32.5394   20.2589 C   0  0  0  0  0  0  0  0  0  0  0  0
    4.8943   29.2614   18.1239 H   0  0  0  0  0  0  0  0  0  0  0  0
    5.2071   30.1685   20.8128 H   0  0  0  0  0  0  0  0  0  0  0  0
    7.8661   29.1566   21.4782 H   0  0  0  0  0  0  0  0  0  0  0  0
    6.3419   28.7284   22.0804 H   0  0  0  0  0  0  0  0  0  0  0  0
    5.3963   32.4950   23.0741 H   0  0  0  0  0  0  0  0  0  0  0  0
    7.5133   29.8292   18.8018 H   0  0  0  0  0  0  0  0  0  0  0  0
    5.6254   31.2474   17.3530 H   0  0  0  0  0  0  0  0  0  0  0  0
    6.1874   33.3781   18.3336 H   0  0  0  0  0  0  0  0  0  0  0  0
    7.2029   33.5067   20.6241 H   0  0  0  0  0  0  0  0  0  0  0  0
  3  1  1  0
  4  1  2  0
  5  3  1  0
  5  6  1  0
  7  1  1  0
  8  5  1  0
  8  2  1  0
  9  8  1  0
 10  9  2  0
 11 10  1  0
 11  3  2  0
  2 12  1  0
  5 13  1  6
  6 14  1  0
  6 15  1  0
  7 16  1  0
  8 17  1  1
  9 18  1  0
 10 19  1  0
 11 20  1  0
M  END
