
     RDKit          3D

 73 77  0  0  0  0  0  0  0  0999 V2000
   28.6935  117.5518   95.3028 P   0  0  1  0  0  0  0  0  0  0  0  0
   28.7184  116.6863   92.7058 P   0  0  2  0  0  0  0  0  0  0  0  0
   26.2378  122.9089   96.3757 C   0  0  1  0  0  0  0  0  0  0  0  0
   26.1171  116.1595   88.1957 C   0  0  1  0  0  0  0  0  0  0  0  0
   22.3454  126.4038   96.4459 N   0  0  0  0  0  0  0  0  0  0  0  0
   27.1454  115.5226   87.3329 N   0  0  0  0  0  0  0  0  0  0  0  0
   28.0206  117.0967   96.7762 O   0  0  0  0  0  0  0  0  0  0  0  0
   29.6174  115.2638   92.8118 O   0  0  0  0  0  0  0  0  0  0  0  0
   23.6545  126.5873   96.0755 C   0  0  0  0  0  0  0  0  0  0  0  0
   27.0041  122.2131   97.5054 C   0  0  2  0  0  0  0  0  0  0  0  0
   25.4857  115.2150   89.2267 C   0  0  2  0  0  0  0  0  0  0  0  0
   28.0587  114.5117   87.8159 C   0  0  0  0  0  0  0  0  0  0  0  0
   30.1432  117.0955   95.2767 O   0  0  0  0  0  0  0  0  0  0  0  0
   27.3773  123.0488   98.5746 O   0  0  0  0  0  0  0  0  0  0  0  0
   24.5033  114.3592   88.6930 O   0  0  0  0  0  0  0  0  0  0  0  0
   29.6510  117.8662   92.4960 O   0  0  0  0  0  0  0  0  0  0  0  0
   28.1938  121.6437   96.7608 C   0  0  2  0  0  0  0  0  0  0  0  0
   24.9658  116.1790   90.2792 C   0  0  2  0  0  0  0  0  0  0  0  0
   28.9490  113.9052   87.0034 C   0  0  0  0  0  0  0  0  0  0  0  0
   24.5522  125.5485   96.1321 N   0  0  0  0  0  0  0  0  0  0  0  0
   27.7793  116.8133   94.0985 O   0  0  0  0  0  0  0  0  0  0  0  0
   29.2203  122.6000   96.6182 O   0  0  0  0  0  0  0  0  0  0  0  0
   23.5991  116.4843   90.1106 O   0  0  0  0  0  0  0  0  0  0  0  0
   24.1044  124.3219   96.5605 C   0  0  0  0  0  0  0  0  0  0  0  0
   27.5821  121.3357   95.3821 C   0  0  2  0  0  0  0  0  0  0  0  0
   25.8733  117.4230   90.0891 C   0  0  2  0  0  0  0  0  0  0  0  0
   29.0731  114.3192   85.5606 C   0  0  0  0  0  0  0  0  0  0  0  0
   26.3619  122.0605   95.2458 O   0  0  0  0  0  0  0  0  0  0  0  0
   26.6621  117.2453   88.9165 O   0  0  0  0  0  0  0  0  0  0  0  0
   22.7974  124.1147   96.9314 C   0  0  0  0  0  0  0  0  0  0  0  0
   27.3753  119.8089   95.1890 C   0  0  0  0  0  0  0  0  0  0  0  0
   26.8076  117.6488   91.2948 C   0  0  0  0  0  0  0  0  0  0  0  0
   28.2067  115.4703   85.1614 C   0  0  0  0  0  0  0  0  0  0  0  0
   28.6663  119.2396   95.0929 O   0  0  0  0  0  0  0  0  0  0  0  0
   27.6502  116.5245   91.4037 O   0  0  0  0  0  0  0  0  0  0  0  0
   21.8803  125.1898   96.8680 C   0  0  0  0  0  0  0  0  0  0  0  0
   27.2984  115.9981   85.9857 C   0  0  0  0  0  0  0  0  0  0  0  0
   20.5134  125.0670   97.2404 N   0  0  0  0  0  0  0  0  0  0  0  0
   29.8337  112.8103   87.5071 C   0  0  0  0  0  0  0  0  0  0  0  0
   22.6164  122.8216   97.3015 N   0  0  0  0  0  0  0  0  0  0  0  0
   31.0625  113.0979   88.1695 N   0  0  0  0  0  0  0  0  0  0  0  0
   29.5156  111.6022   87.3535 O   0  0  0  0  0  0  0  0  0  0  0  0
   23.8634  122.2787   97.1377 C   0  0  0  0  0  0  0  0  0  0  0  0
   24.8085  123.1659   96.6970 N   0  0  0  0  0  0  0  0  0  0  0  0
   26.7300  123.8778   96.1306 H   0  0  0  0  0  0  0  0  0  0  0  0
   25.3067  116.5649   87.5464 H   0  0  0  0  0  0  0  0  0  0  0  0
   27.1901  116.6105   96.5424 H   0  0  0  0  0  0  0  0  0  0  0  0
   30.0376  115.1636   91.9205 H   0  0  0  0  0  0  0  0  0  0  0  0
   23.9847  127.5619   95.7434 H   0  0  0  0  0  0  0  0  0  0  0  0
   26.4021  121.3703   97.9095 H   0  0  0  0  0  0  0  0  0  0  0  0
   26.2325  114.5870   89.7416 H   0  0  0  0  0  0  0  0  0  0  0  0
   28.0721  114.2405   88.8586 H   0  0  0  0  0  0  0  0  0  0  0  0
   28.0472  123.7013   98.2428 H   0  0  0  0  0  0  0  0  0  0  0  0
   24.9555  113.6058   88.2329 H   0  0  0  0  0  0  0  0  0  0  0  0
   28.5804  120.7305   97.2738 H   0  0  0  0  0  0  0  0  0  0  0  0
   25.0860  115.7305   91.2912 H   0  0  0  0  0  0  0  0  0  0  0  0
   29.7792  122.5439   97.4367 H   0  0  0  0  0  0  0  0  0  0  0  0
   23.0813  115.6421   90.2038 H   0  0  0  0  0  0  0  0  0  0  0  0
   28.2714  121.6833   94.5795 H   0  0  0  0  0  0  0  0  0  0  0  0
   25.2528  118.3380   89.9647 H   0  0  0  0  0  0  0  0  0  0  0  0
   28.7883  113.4634   84.9139 H   0  0  0  0  0  0  0  0  0  0  0  0
   30.1305  114.5856   85.3491 H   0  0  0  0  0  0  0  0  0  0  0  0
   26.8172  119.6242   94.2457 H   0  0  0  0  0  0  0  0  0  0  0  0
   26.7993  119.4006   96.0491 H   0  0  0  0  0  0  0  0  0  0  0  0
   27.4057  118.5704   91.1161 H   0  0  0  0  0  0  0  0  0  0  0  0
   26.1928  117.7789   92.2137 H   0  0  0  0  0  0  0  0  0  0  0  0
   28.2933  115.8585   84.1541 H   0  0  0  0  0  0  0  0  0  0  0  0
   26.6809  116.8128   85.6264 H   0  0  0  0  0  0  0  0  0  0  0  0
   20.1323  124.1538   97.5736 H   0  0  0  0  0  0  0  0  0  0  0  0
   19.8743  125.8908   97.1838 H   0  0  0  0  0  0  0  0  0  0  0  0
   31.4055  114.0715   88.3148 H   0  0  0  0  0  0  0  0  0  0  0  0
   31.6593  112.3154   88.5189 H   0  0  0  0  0  0  0  0  0  0  0  0
   24.0732  121.2348   97.3297 H   0  0  0  0  0  0  0  0  0  0  0  0
  4  6  1  0
  1  7  1  1
  2  8  1  1
  9  5  2  0
 10  3  1  0
 11  4  1  0
 12  6  1  0
 13  1  2  0
 10 14  1  0
 11 15  1  0
 16  2  2  0
 17 10  1  0
 18 11  1  0
 19 12  2  0
 20  9  1  0
 21  2  1  0
 21  1  1  0
 17 22  1  0
 18 23  1  0
 24 20  2  0
 25 17  1  0
 26 18  1  0
 27 19  1  0
 28  3  1  0
 28 25  1  0
 29 26  1  0
 29  4  1  0
 30 24  1  0
 25 31  1  0
 26 32  1  0
 33 27  1  0
 34 31  1  0
 34  1  1  0
 35 32  1  0
 35  2  1  0
 36 30  2  0
 36  5  1  0
 37 33  2  0
 37  6  1  0
 38 36  1  0
 39 19  1  0
 40 30  1  0
 41 39  1  0
 42 39  2  0
 43 40  2  0
 44 43  1  0
 44 24  1  0
  3 44  1  0
  3 45  1  6
  4 46  1  6
  7 47  1  0
  8 48  1  0
  9 49  1  0
 10 50  1  1
 11 51  1  1
 12 52  1  0
 14 53  1  0
 15 54  1  0
 17 55  1  1
 18 56  1  1
 22 57  1  0
 23 58  1  0
 25 59  1  6
 26 60  1  6
 27 61  1  0
 27 62  1  0
 31 63  1  0
 31 64  1  0
 32 65  1  0
 32 66  1  0
 33 67  1  0
 37 68  1  0
 38 69  1  0
 38 70  1  0
 41 71  1  0
 41 72  1  0
 43 73  1  0
M  END
