
     RDKit          3D

 73 77  0  0  0  0  0  0  0  0999 V2000
   -8.0628   62.8133   67.6172 P   0  0  1  0  0  0  0  0  0  0  0  0
   -6.6555   62.7488   69.9624 P   0  0  2  0  0  0  0  0  0  0  0  0
  -14.0687   63.0136   67.8969 C   0  0  1  0  0  0  0  0  0  0  0  0
   -6.2471   64.5714   74.7353 C   0  0  1  0  0  0  0  0  0  0  0  0
  -18.6837   65.0158   69.3870 N   0  0  0  0  0  0  0  0  0  0  0  0
   -5.2249   63.6439   75.2909 N   0  0  0  0  0  0  0  0  0  0  0  0
   -8.3108   63.8204   66.2949 O   0  0  0  0  0  0  0  0  0  0  0  0
   -5.0352   62.5352   69.5488 O   0  0  0  0  0  0  0  0  0  0  0  0
  -18.2648   63.7121   69.4310 C   0  0  0  0  0  0  0  0  0  0  0  0
  -13.4145   62.8641   66.5231 C   0  0  2  0  0  0  0  0  0  0  0  0
   -5.6913   65.6445   73.7963 C   0  0  2  0  0  0  0  0  0  0  0  0
   -4.0525   63.2251   74.5567 C   0  0  0  0  0  0  0  0  0  0  0  0
   -7.1512   61.6719   67.1941 O   0  0  0  0  0  0  0  0  0  0  0  0
  -14.2968   62.3740   65.5481 O   0  0  0  0  0  0  0  0  0  0  0  0
   -5.0052   66.6864   74.4473 O   0  0  0  0  0  0  0  0  0  0  0  0
   -7.3350   61.3966   70.0828 O   0  0  0  0  0  0  0  0  0  0  0  0
  -12.2888   61.8933   66.8294 C   0  0  2  0  0  0  0  0  0  0  0  0
   -6.9430   66.0956   73.0708 C   0  0  2  0  0  0  0  0  0  0  0  0
   -3.1062   62.4351   75.1110 C   0  0  0  0  0  0  0  0  0  0  0  0
  -17.0116   63.3609   68.9921 N   0  0  0  0  0  0  0  0  0  0  0  0
   -7.3462   63.7624   68.8075 O   0  0  0  0  0  0  0  0  0  0  0  0
  -12.7420   60.5566   66.8051 O   0  0  0  0  0  0  0  0  0  0  0  0
   -7.5681   67.1849   73.7132 O   0  0  0  0  0  0  0  0  0  0  0  0
  -16.1922   64.3447   68.5006 C   0  0  0  0  0  0  0  0  0  0  0  0
  -11.9165   62.2932   68.2679 C   0  0  2  0  0  0  0  0  0  0  0  0
   -7.8238   64.8187   73.0921 C   0  0  2  0  0  0  0  0  0  0  0  0
   -3.2673   61.9137   76.5150 C   0  0  0  0  0  0  0  0  0  0  0  0
  -12.9976   63.0382   68.8291 O   0  0  0  0  0  0  0  0  0  0  0  0
   -7.2415   63.8819   74.0011 O   0  0  0  0  0  0  0  0  0  0  0  0
  -16.5909   65.6572   68.4518 C   0  0  0  0  0  0  0  0  0  0  0  0
  -10.5791   63.0932   68.3124 C   0  0  0  0  0  0  0  0  0  0  0  0
   -7.9243   64.1713   71.6948 C   0  0  0  0  0  0  0  0  0  0  0  0
   -4.5501   62.2894   77.1800 C   0  0  0  0  0  0  0  0  0  0  0  0
   -9.5230   62.1548   68.2049 O   0  0  0  0  0  0  0  0  0  0  0  0
   -6.6790   63.5695   71.4390 O   0  0  0  0  0  0  0  0  0  0  0  0
  -17.8830   66.0087   68.9033 C   0  0  0  0  0  0  0  0  0  0  0  0
   -5.4359   63.1098   76.6092 C   0  0  0  0  0  0  0  0  0  0  0  0
  -18.3758   67.3429   68.8851 N   0  0  0  0  0  0  0  0  0  0  0  0
   -1.8752   62.0542   74.3544 C   0  0  0  0  0  0  0  0  0  0  0  0
  -15.5988   66.4276   67.9438 N   0  0  0  0  0  0  0  0  0  0  0  0
   -0.7486   61.4771   75.0109 N   0  0  0  0  0  0  0  0  0  0  0  0
   -1.8025   62.2372   73.1119 O   0  0  0  0  0  0  0  0  0  0  0  0
  -14.6023   65.5213   67.7017 C   0  0  0  0  0  0  0  0  0  0  0  0
  -14.9233   64.2295   68.0202 N   0  0  0  0  0  0  0  0  0  0  0  0
  -14.6933   62.1141   68.1035 H   0  0  0  0  0  0  0  0  0  0  0  0
   -6.7552   65.0793   75.5880 H   0  0  0  0  0  0  0  0  0  0  0  0
   -7.4137   64.1798   66.0778 H   0  0  0  0  0  0  0  0  0  0  0  0
   -4.6383   62.0566   70.3198 H   0  0  0  0  0  0  0  0  0  0  0  0
  -18.9267   62.9513   69.8211 H   0  0  0  0  0  0  0  0  0  0  0  0
  -12.9813   63.8371   66.1953 H   0  0  0  0  0  0  0  0  0  0  0  0
   -5.0238   65.2216   73.0237 H   0  0  0  0  0  0  0  0  0  0  0  0
   -3.9222   63.5186   73.5280 H   0  0  0  0  0  0  0  0  0  0  0  0
  -13.8182   62.4356   64.6806 H   0  0  0  0  0  0  0  0  0  0  0  0
   -5.6586   67.3917   74.6914 H   0  0  0  0  0  0  0  0  0  0  0  0
  -11.4396   62.0286   66.1177 H   0  0  0  0  0  0  0  0  0  0  0  0
   -6.6877   66.4123   72.0346 H   0  0  0  0  0  0  0  0  0  0  0  0
  -13.3450   60.4453   67.5857 H   0  0  0  0  0  0  0  0  0  0  0  0
   -7.8951   66.8829   74.6003 H   0  0  0  0  0  0  0  0  0  0  0  0
  -11.7844   61.3783   68.8887 H   0  0  0  0  0  0  0  0  0  0  0  0
   -8.8541   65.0627   73.4334 H   0  0  0  0  0  0  0  0  0  0  0  0
   -2.4461   62.3160   77.1445 H   0  0  0  0  0  0  0  0  0  0  0  0
   -3.1934   60.8054   76.5013 H   0  0  0  0  0  0  0  0  0  0  0  0
  -10.4948   63.6155   69.2896 H   0  0  0  0  0  0  0  0  0  0  0  0
  -10.5684   63.8528   67.4993 H   0  0  0  0  0  0  0  0  0  0  0  0
   -8.7338   63.4075   71.7102 H   0  0  0  0  0  0  0  0  0  0  0  0
   -8.1578   64.9476   70.9321 H   0  0  0  0  0  0  0  0  0  0  0  0
   -4.7495   61.9071   78.1734 H   0  0  0  0  0  0  0  0  0  0  0  0
   -6.3376   63.3600   77.1554 H   0  0  0  0  0  0  0  0  0  0  0  0
  -19.1590   67.6126   68.2494 H   0  0  0  0  0  0  0  0  0  0  0  0
  -17.9590   68.0688   69.5092 H   0  0  0  0  0  0  0  0  0  0  0  0
   -0.7263   61.3007   76.0381 H   0  0  0  0  0  0  0  0  0  0  0  0
    0.0977   61.2182   74.4565 H   0  0  0  0  0  0  0  0  0  0  0  0
  -13.6397   65.8126   67.3030 H   0  0  0  0  0  0  0  0  0  0  0  0
  4  6  1  0
  1  7  1  6
  2  8  1  6
  9  5  2  0
 10  3  1  0
 11  4  1  0
 12  6  1  0
 13  1  2  0
 10 14  1  0
 11 15  1  0
 16  2  2  0
 17 10  1  0
 18 11  1  0
 19 12  2  0
 20  9  1  0
 21  2  1  0
 21  1  1  0
 17 22  1  0
 18 23  1  0
 24 20  2  0
 25 17  1  0
 26 18  1  0
 27 19  1  0
 28 25  1  0
 28  3  1  0
 29 26  1  0
 29  4  1  0
 30 24  1  0
 25 31  1  0
 26 32  1  0
 33 27  1  0
 34 31  1  0
 34  1  1  0
 35  2  1  0
 35 32  1  0
 36 30  2  0
 36  5  1  0
 37  6  1  0
 37 33  2  0
 38 36  1  0
 39 19  1  0
 40 30  1  0
 41 39  1  0
 42 39  2  0
 43 40  2  0
 44 43  1  0
 44 24  1  0
  3 44  1  0
  3 45  1  1
  4 46  1  1
  7 47  1  0
  8 48  1  0
  9 49  1  0
 10 50  1  6
 11 51  1  6
 12 52  1  0
 14 53  1  0
 15 54  1  0
 17 55  1  6
 18 56  1  6
 22 57  1  0
 23 58  1  0
 25 59  1  1
 26 60  1  1
 27 61  1  0
 27 62  1  0
 31 63  1  0
 31 64  1  0
 32 65  1  0
 32 66  1  0
 33 67  1  0
 37 68  1  0
 38 69  1  0
 38 70  1  0
 41 71  1  0
 41 72  1  0
 43 73  1  0
M  END
