
     RDKit          3D

 10  9  0  0  0  0  0  0  0  0999 V2000
   22.9572   80.6265   91.8891 C   0  0  0  0  0  0  0  0  0  0  0  0
   24.2557   80.4589   92.3080 O   0  0  0  0  0  0  0  0  0  0  0  0
   22.1218   81.5021   92.7443 C   0  0  0  0  0  0  0  0  0  0  0  0
   22.6299   80.2697   90.7284 O   0  0  0  0  0  0  0  0  0  0  0  0
   21.6833   82.8250   92.2458 C   0  0  0  0  0  0  0  0  0  0  0  0
   21.2631   80.8900   93.6573 O   0  0  0  0  0  0  0  0  0  0  0  0
   22.4645   83.6459   91.4566 O   0  0  0  0  0  0  0  0  0  0  0  0
   20.5974   83.2593   92.6962 O   0  0  0  0  0  0  0  0  0  0  0  0
   22.9447   81.8490   93.4192 H   0  0  0  0  0  0  0  0  0  0  0  0
   20.6201   80.3265   93.1508 H   0  0  0  0  0  0  0  0  0  0  0  0
  2  1  1  0
  3  1  1  0
  4  1  2  0
  5  3  1  0
  3  6  1  0
  7  5  1  0
  8  5  2  0
  3  9  1  0
  6 10  1  0
M  CHG  2   2  -1   7  -1
M  END
