
     RDKit          3D

 43 44  0  0  0  0  0  0  0  0999 V2000
  -17.3093   -2.4383   66.6750 P   0  0  1  0  0  0  0  0  0  0  0  0
  -19.5465   -2.1762   64.9211 P   0  0  2  0  0  0  0  0  0  0  0  0
  -20.1319   -4.3176   66.6463 P   0  0  0  0  0  0  0  0  0  0  0  0
  -17.2556   -4.5081   68.1577 C   0  0  0  0  0  0  0  0  0  0  0  0
  -16.4836   -3.7889   67.2373 O   0  0  0  0  0  0  0  0  0  0  0  0
  -16.5631   -5.8588   68.3504 C   0  0  1  0  0  0  0  0  0  0  0  0
  -16.5680   -6.5652   67.1212 O   0  0  0  0  0  0  0  0  0  0  0  0
  -15.0973   -5.7319   68.8056 C   0  0  1  0  0  0  0  0  0  0  0  0
  -14.9272   -5.6111   70.1977 O   0  0  0  0  0  0  0  0  0  0  0  0
  -14.4833   -6.9909   68.2570 C   0  0  0  0  0  0  0  0  0  0  0  0
  -15.3984   -7.3632   67.0809 C   0  0  2  0  0  0  0  0  0  0  0  0
  -14.6524   -7.1964   65.8127 N   0  0  0  0  0  0  0  0  0  0  0  0
  -18.1736   -1.8207   67.7524 O   0  0  0  0  0  0  0  0  0  0  0  0
  -19.6385   -2.2326   63.4142 O   0  0  0  0  0  0  0  0  0  0  0  0
  -20.0463   -3.6776   68.0104 O   0  0  0  0  0  0  0  0  0  0  0  0
  -13.5111   -7.9251   65.5640 C   0  0  0  0  0  0  0  0  0  0  0  0
  -13.2754   -8.9897   66.2076 O   0  0  0  0  0  0  0  0  0  0  0  0
  -16.1165   -1.3742   66.1612 O   0  0  0  0  0  0  0  0  0  0  0  0
  -19.6967   -0.5721   65.4043 O   0  0  0  0  0  0  0  0  0  0  0  0
  -21.3012   -5.5152   66.6702 O   0  0  0  0  0  0  0  0  0  0  0  0
  -12.6130   -7.4866   64.6299 N   0  0  0  0  0  0  0  0  0  0  0  0
  -18.0632   -2.9017   65.2442 O   0  0  0  0  0  0  0  0  0  0  0  0
  -20.7265   -3.2275   65.5115 O   0  0  0  0  0  0  0  0  0  0  0  0
  -18.6630   -4.9843   66.1833 O   0  0  0  0  0  0  0  0  0  0  0  0
  -12.8322   -6.3382   63.9297 C   0  0  0  0  0  0  0  0  0  0  0  0
  -11.9811   -5.9194   63.1029 O   0  0  0  0  0  0  0  0  0  0  0  0
  -14.0077   -5.6296   64.1154 C   0  0  0  0  0  0  0  0  0  0  0  0
  -14.9287   -6.1021   65.0375 C   0  0  0  0  0  0  0  0  0  0  0  0
  -18.2881   -4.6930   67.7829 H   0  0  0  0  0  0  0  0  0  0  0  0
  -17.2991   -3.9681   69.1294 H   0  0  0  0  0  0  0  0  0  0  0  0
  -17.1458   -6.4491   69.0930 H   0  0  0  0  0  0  0  0  0  0  0  0
  -14.6000   -4.8608   68.3318 H   0  0  0  0  0  0  0  0  0  0  0  0
  -15.8174   -5.4366   70.6011 H   0  0  0  0  0  0  0  0  0  0  0  0
  -13.4178   -6.8384   67.9762 H   0  0  0  0  0  0  0  0  0  0  0  0
  -14.5189   -7.8027   69.0176 H   0  0  0  0  0  0  0  0  0  0  0  0
  -15.7193   -8.4195   67.2160 H   0  0  0  0  0  0  0  0  0  0  0  0
  -15.5824   -1.1816   66.9727 H   0  0  0  0  0  0  0  0  0  0  0  0
  -19.0262   -0.0815   64.8650 H   0  0  0  0  0  0  0  0  0  0  0  0
  -21.2616   -5.9249   65.7691 H   0  0  0  0  0  0  0  0  0  0  0  0
  -11.7359   -8.0310   64.4634 H   0  0  0  0  0  0  0  0  0  0  0  0
  -18.4846   -5.6921   66.8525 H   0  0  0  0  0  0  0  0  0  0  0  0
  -14.2116   -4.7284   63.5499 H   0  0  0  0  0  0  0  0  0  0  0  0
  -15.8360   -5.5347   65.1816 H   0  0  0  0  0  0  0  0  0  0  0  0
  5  4  1  0
  1  5  1  1
  6  4  1  0
  7  6  1  0
  8  6  1  0
  8  9  1  0
 10  8  1  0
 11 10  1  0
 11  7  1  0
 11 12  1  0
 13  1  2  0
 14  2  2  0
 15  3  2  0
 16 12  1  0
 17 16  2  0
 18  1  1  0
  2 19  1  1
 20  3  1  0
 21 16  1  0
 22  2  1  0
 22  1  1  0
 23  2  1  0
 23  3  1  0
 24  3  1  0
 25 21  1  0
 26 25  2  0
 27 25  1  0
 28 27  2  0
 28 12  1  0
  4 29  1  0
  4 30  1  0
  6 31  1  1
  8 32  1  6
  9 33  1  0
 10 34  1  0
 10 35  1  0
 11 36  1  1
 18 37  1  0
 19 38  1  0
 20 39  1  0
 21 40  1  0
 24 41  1  0
 27 42  1  0
 28 43  1  0
M  END
