
     RDKit          3D

 43 44  0  0  0  0  0  0  0  0999 V2000
    6.5913    7.9375   15.5348 P   0  0  1  0  0  0  0  0  0  0  0  0
    7.4549    9.9628   17.3268 P   0  0  2  0  0  0  0  0  0  0  0  0
    8.8111   11.7100   15.5781 P   0  0  0  0  0  0  0  0  0  0  0  0
    8.6780    6.9059   14.5012 C   0  0  0  0  0  0  0  0  0  0  0  0
    7.3761    6.5839   14.9125 O   0  0  0  0  0  0  0  0  0  0  0  0
    9.4689    5.5981   14.3764 C   0  0  1  0  0  0  0  0  0  0  0  0
    9.5946    4.9812   15.6456 O   0  0  0  0  0  0  0  0  0  0  0  0
    8.8291    4.5748   13.4251 C   0  0  1  0  0  0  0  0  0  0  0  0
    9.1670    4.7648   12.0709 O   0  0  0  0  0  0  0  0  0  0  0  0
    9.3548    3.2691   13.9660 C   0  0  0  0  0  0  0  0  0  0  0  0
    9.6992    3.5826   15.4311 C   0  0  2  0  0  0  0  0  0  0  0  0
    8.7777    2.8338   16.3120 N   0  0  0  0  0  0  0  0  0  0  0  0
    6.4681    9.0272   14.4933 O   0  0  0  0  0  0  0  0  0  0  0  0
    7.4965    9.9874   18.8369 O   0  0  0  0  0  0  0  0  0  0  0  0
    8.6469   13.0751   16.1990 O   0  0  0  0  0  0  0  0  0  0  0  0
    8.4480    1.5171   16.0753 C   0  0  0  0  0  0  0  0  0  0  0  0
    9.1185    0.8228   15.2553 O   0  0  0  0  0  0  0  0  0  0  0  0
    5.0692    7.4116   16.0126 O   0  0  0  0  0  0  0  0  0  0  0  0
    6.1079   10.8302   16.8161 O   0  0  0  0  0  0  0  0  0  0  0  0
   10.2843   11.6314   14.7848 O   0  0  0  0  0  0  0  0  0  0  0  0
    7.3806    0.9567   16.7252 N   0  0  0  0  0  0  0  0  0  0  0  0
    7.4127    8.3208   16.9570 O   0  0  0  0  0  0  0  0  0  0  0  0
    8.9492   10.5416   16.7858 O   0  0  0  0  0  0  0  0  0  0  0  0
    7.5561   11.3993   14.5086 O   0  0  0  0  0  0  0  0  0  0  0  0
    6.6347    1.6862   17.6048 C   0  0  0  0  0  0  0  0  0  0  0  0
    5.6381    1.1790   18.1812 O   0  0  0  0  0  0  0  0  0  0  0  0
    6.9779    2.9970   17.8836 C   0  0  0  0  0  0  0  0  0  0  0  0
    8.0791    3.5425   17.2503 C   0  0  0  0  0  0  0  0  0  0  0  0
    9.2097    7.5565   15.2329 H   0  0  0  0  0  0  0  0  0  0  0  0
    8.6460    7.4161   13.5134 H   0  0  0  0  0  0  0  0  0  0  0  0
   10.4927    5.8543   14.0202 H   0  0  0  0  0  0  0  0  0  0  0  0
    7.7224    4.5831   13.5079 H   0  0  0  0  0  0  0  0  0  0  0  0
    8.4988    5.3786   11.6679 H   0  0  0  0  0  0  0  0  0  0  0  0
   10.2839    2.9700   13.4315 H   0  0  0  0  0  0  0  0  0  0  0  0
    8.6144    2.4488   13.8378 H   0  0  0  0  0  0  0  0  0  0  0  0
   10.7558    3.2908   15.6189 H   0  0  0  0  0  0  0  0  0  0  0  0
    4.6570    8.1982   16.4513 H   0  0  0  0  0  0  0  0  0  0  0  0
    6.1771   11.7050   17.2756 H   0  0  0  0  0  0  0  0  0  0  0  0
   10.9358   12.0310   15.4150 H   0  0  0  0  0  0  0  0  0  0  0  0
    7.1246   -0.0390   16.5344 H   0  0  0  0  0  0  0  0  0  0  0  0
    7.6669   12.0689   13.7875 H   0  0  0  0  0  0  0  0  0  0  0  0
    6.4087    3.5841   18.5944 H   0  0  0  0  0  0  0  0  0  0  0  0
    8.3399    4.5642   17.4851 H   0  0  0  0  0  0  0  0  0  0  0  0
  5  4  1  0
  1  5  1  6
  6  4  1  0
  7  6  1  0
  8  6  1  0
  8  9  1  0
 10  8  1  0
 11 10  1  0
 11  7  1  0
 11 12  1  0
 13  1  2  0
 14  2  2  0
 15  3  2  0
 16 12  1  0
 17 16  2  0
 18  1  1  0
  2 19  1  6
 20  3  1  0
 21 16  1  0
 22  1  1  0
 22  2  1  0
 23  2  1  0
 23  3  1  0
 24  3  1  0
 25 21  1  0
 26 25  2  0
 27 25  1  0
 28 27  2  0
 28 12  1  0
  4 29  1  0
  4 30  1  0
  6 31  1  6
  8 32  1  6
  9 33  1  0
 10 34  1  0
 10 35  1  0
 11 36  1  1
 18 37  1  0
 19 38  1  0
 20 39  1  0
 21 40  1  0
 24 41  1  0
 27 42  1  0
 28 43  1  0
M  END
