
     RDKit          3D

 43 44  0  0  0  0  0  0  0  0999 V2000
    7.0712    8.5439   16.3402 P   0  0  1  0  0  0  0  0  0  0  0  0
    7.9773   10.6662   17.9936 P   0  0  2  0  0  0  0  0  0  0  0  0
    9.7477   12.0066   16.2562 P   0  0  0  0  0  0  0  0  0  0  0  0
    9.3094    7.6865   15.4784 C   0  0  0  0  0  0  0  0  0  0  0  0
    8.0087    7.2599   15.7855 O   0  0  0  0  0  0  0  0  0  0  0  0
   10.2097    6.4466   15.4200 C   0  0  1  0  0  0  0  0  0  0  0  0
   10.2829    5.8366   16.6966 O   0  0  0  0  0  0  0  0  0  0  0  0
    9.7314    5.3794   14.4231 C   0  0  1  0  0  0  0  0  0  0  0  0
   10.1598    5.6013   13.0997 O   0  0  0  0  0  0  0  0  0  0  0  0
   10.3151    4.1177   15.0072 C   0  0  0  0  0  0  0  0  0  0  0  0
   10.5157    4.4516   16.4943 C   0  0  2  0  0  0  0  0  0  0  0  0
    9.5899    3.6281   17.3007 N   0  0  0  0  0  0  0  0  0  0  0  0
    6.9214    9.6119   15.2798 O   0  0  0  0  0  0  0  0  0  0  0  0
    7.8440   10.8778   19.4837 O   0  0  0  0  0  0  0  0  0  0  0  0
    9.8459   13.4430   16.7071 O   0  0  0  0  0  0  0  0  0  0  0  0
    9.8171    2.2895   17.5355 C   0  0  0  0  0  0  0  0  0  0  0  0
   10.9503    1.7770   17.2958 O   0  0  0  0  0  0  0  0  0  0  0  0
    5.5728    7.8904   16.7265 O   0  0  0  0  0  0  0  0  0  0  0  0
    6.8256   11.6126   17.2154 O   0  0  0  0  0  0  0  0  0  0  0  0
   11.2043   11.5343   15.5771 O   0  0  0  0  0  0  0  0  0  0  0  0
    8.8066    1.5042   18.0232 N   0  0  0  0  0  0  0  0  0  0  0  0
    7.7630    9.0067   17.8069 O   0  0  0  0  0  0  0  0  0  0  0  0
    9.5880   10.9934   17.5942 O   0  0  0  0  0  0  0  0  0  0  0  0
    8.5019   11.8258   15.1469 O   0  0  0  0  0  0  0  0  0  0  0  0
    7.5731    2.0289   18.2788 C   0  0  0  0  0  0  0  0  0  0  0  0
    6.6375    1.3018   18.7014 O   0  0  0  0  0  0  0  0  0  0  0  0
    7.3413    3.3793   18.0870 C   0  0  0  0  0  0  0  0  0  0  0  0
    8.3782    4.1709   17.6292 C   0  0  0  0  0  0  0  0  0  0  0  0
    9.7274    8.3746   16.2487 H   0  0  0  0  0  0  0  0  0  0  0  0
    9.3153    8.1966   14.4900 H   0  0  0  0  0  0  0  0  0  0  0  0
   11.2348    6.7852   15.1459 H   0  0  0  0  0  0  0  0  0  0  0  0
    8.6246    5.2989   14.4175 H   0  0  0  0  0  0  0  0  0  0  0  0
   11.1456    5.7181   13.1085 H   0  0  0  0  0  0  0  0  0  0  0  0
   11.3048    3.8959   14.5491 H   0  0  0  0  0  0  0  0  0  0  0  0
    9.6553    3.2413   14.8224 H   0  0  0  0  0  0  0  0  0  0  0  0
   11.5740    4.2445   16.7664 H   0  0  0  0  0  0  0  0  0  0  0  0
    4.9163    8.5630   16.4138 H   0  0  0  0  0  0  0  0  0  0  0  0
    7.3464   12.2313   16.6435 H   0  0  0  0  0  0  0  0  0  0  0  0
   11.7775   12.3414   15.6142 H   0  0  0  0  0  0  0  0  0  0  0  0
    8.9779    0.4860   18.1885 H   0  0  0  0  0  0  0  0  0  0  0  0
    8.7803   12.3646   14.3641 H   0  0  0  0  0  0  0  0  0  0  0  0
    6.3739    3.8160   18.3040 H   0  0  0  0  0  0  0  0  0  0  0  0
    8.1844    5.2249   17.4930 H   0  0  0  0  0  0  0  0  0  0  0  0
  5  4  1  0
  1  5  1  6
  6  4  1  0
  7  6  1  0
  8  6  1  0
  8  9  1  0
 10  8  1  0
 11 10  1  0
 11  7  1  0
 11 12  1  0
 13  1  2  0
 14  2  2  0
 15  3  2  0
 16 12  1  0
 17 16  2  0
 18  1  1  0
  2 19  1  6
 20  3  1  0
 21 16  1  0
 22  1  1  0
 22  2  1  0
 23  2  1  0
 23  3  1  0
 24  3  1  0
 25 21  1  0
 26 25  2  0
 27 25  1  0
 28 27  2  0
 28 12  1  0
  4 29  1  0
  4 30  1  0
  6 31  1  6
  8 32  1  6
  9 33  1  0
 10 34  1  0
 10 35  1  0
 11 36  1  1
 18 37  1  0
 19 38  1  0
 20 39  1  0
 21 40  1  0
 24 41  1  0
 27 42  1  0
 28 43  1  0
M  END
