
     RDKit          3D

 43 44  0  0  0  0  0  0  0  0999 V2000
    6.7116    8.2144   15.3931 P   0  0  1  0  0  0  0  0  0  0  0  0
    6.2874    9.9588   17.5923 P   0  0  2  0  0  0  0  0  0  0  0  0
    8.5218   11.0475   16.2612 P   0  0  0  0  0  0  0  0  0  0  0  0
    9.0510    7.4212   14.7727 C   0  0  0  0  0  0  0  0  0  0  0  0
    7.7450    6.9517   14.9772 O   0  0  0  0  0  0  0  0  0  0  0  0
   10.0000    6.2189   14.8455 C   0  0  1  0  0  0  0  0  0  0  0  0
    9.9785    5.6588   16.1467 O   0  0  0  0  0  0  0  0  0  0  0  0
    9.6572    5.0973   13.8525 C   0  0  1  0  0  0  0  0  0  0  0  0
   10.1969    5.2893   12.5657 O   0  0  0  0  0  0  0  0  0  0  0  0
   10.2326    3.8831   14.5368 C   0  0  0  0  0  0  0  0  0  0  0  0
   10.2820    4.2785   16.0215 C   0  0  2  0  0  0  0  0  0  0  0  0
    9.3181    3.4463   16.7726 N   0  0  0  0  0  0  0  0  0  0  0  0
    6.7195    9.2994   14.3395 O   0  0  0  0  0  0  0  0  0  0  0  0
    6.5145    9.8467   19.0818 O   0  0  0  0  0  0  0  0  0  0  0  0
    8.2640   10.9702   14.7767 O   0  0  0  0  0  0  0  0  0  0  0  0
    9.5741    2.1278   17.0799 C   0  0  0  0  0  0  0  0  0  0  0  0
   10.7434    1.6550   16.9646 O   0  0  0  0  0  0  0  0  0  0  0  0
    5.1801    7.5364   15.5216 O   0  0  0  0  0  0  0  0  0  0  0  0
    4.6323    9.9088   17.2999 O   0  0  0  0  0  0  0  0  0  0  0  0
    9.4642   12.3917   16.5945 O   0  0  0  0  0  0  0  0  0  0  0  0
    8.5539    1.3188   17.5047 N   0  0  0  0  0  0  0  0  0  0  0  0
    7.1505    8.6589   16.9597 O   0  0  0  0  0  0  0  0  0  0  0  0
    7.0816   11.3614   17.0796 O   0  0  0  0  0  0  0  0  0  0  0  0
    9.2865    9.6528   16.7954 O   0  0  0  0  0  0  0  0  0  0  0  0
    7.2828    1.8002   17.6263 C   0  0  0  0  0  0  0  0  0  0  0  0
    6.3409    1.0501   17.9907 O   0  0  0  0  0  0  0  0  0  0  0  0
    7.0179    3.1318   17.3608 C   0  0  0  0  0  0  0  0  0  0  0  0
    8.0614    3.9493   16.9680 C   0  0  0  0  0  0  0  0  0  0  0  0
    9.3694    8.1535   15.5499 H   0  0  0  0  0  0  0  0  0  0  0  0
    9.1285    7.8952   13.7695 H   0  0  0  0  0  0  0  0  0  0  0  0
   11.0322    6.5901   14.6524 H   0  0  0  0  0  0  0  0  0  0  0  0
    8.5595    4.9704   13.7496 H   0  0  0  0  0  0  0  0  0  0  0  0
   10.6940    6.1487   12.5631 H   0  0  0  0  0  0  0  0  0  0  0  0
   11.2681    3.6867   14.1796 H   0  0  0  0  0  0  0  0  0  0  0  0
    9.6269    2.9737   14.3277 H   0  0  0  0  0  0  0  0  0  0  0  0
   11.3179    4.1258   16.3965 H   0  0  0  0  0  0  0  0  0  0  0  0
    4.6509    7.9718   14.8064 H   0  0  0  0  0  0  0  0  0  0  0  0
    4.4140    8.9455   17.2267 H   0  0  0  0  0  0  0  0  0  0  0  0
    9.6483   12.8005   15.7112 H   0  0  0  0  0  0  0  0  0  0  0  0
    8.7482    0.3153   17.7252 H   0  0  0  0  0  0  0  0  0  0  0  0
   10.1661    9.6568   16.3404 H   0  0  0  0  0  0  0  0  0  0  0  0
    6.0184    3.5351   17.4716 H   0  0  0  0  0  0  0  0  0  0  0  0
    7.8406    4.9886   16.7730 H   0  0  0  0  0  0  0  0  0  0  0  0
  5  4  1  0
  1  5  1  6
  6  4  1  0
  7  6  1  0
  8  6  1  0
  8  9  1  0
 10  8  1  0
 11 10  1  0
 11  7  1  0
 11 12  1  0
 13  1  2  0
 14  2  2  0
 15  3  2  0
 16 12  1  0
 17 16  2  0
 18  1  1  0
  2 19  1  1
 20  3  1  0
 21 16  1  0
 22  1  1  0
 22  2  1  0
 23  2  1  0
 23  3  1  0
 24  3  1  0
 25 21  1  0
 26 25  2  0
 27 25  1  0
 28 27  2  0
 28 12  1  0
  4 29  1  0
  4 30  1  0
  6 31  1  6
  8 32  1  6
  9 33  1  0
 10 34  1  0
 10 35  1  0
 11 36  1  1
 18 37  1  0
 19 38  1  0
 20 39  1  0
 21 40  1  0
 24 41  1  0
 27 42  1  0
 28 43  1  0
M  END
