
     RDKit          3D

 70 76  0  0  0  0  0  0  0  0999 V2000
   66.5018   24.8845   44.0455 P   0  0  2  0  0  0  0  0  0  0  0  0
   71.9223   26.0656   44.0168 P   0  0  1  0  0  0  0  0  0  0  0  0
   65.3557   25.0847   43.0844 O   0  0  0  0  0  0  0  0  0  0  0  0
   65.9142   24.5621   45.5868 O   0  0  0  0  0  0  0  0  0  0  0  0
   67.8245   26.7475   42.8946 C   0  0  0  0  0  0  0  0  0  0  0  0
   67.4116   26.2987   44.1581 O   0  0  0  0  0  0  0  0  0  0  0  0
   68.7157   27.9729   43.1330 C   0  0  1  0  0  0  0  0  0  0  0  0
   67.9803   29.0036   43.7675 O   0  0  0  0  0  0  0  0  0  0  0  0
   69.9143   27.6384   44.0108 C   0  0  1  0  0  0  0  0  0  0  0  0
   70.9765   27.2001   43.1900 O   0  0  0  0  0  0  0  0  0  0  0  0
   70.1932   28.9675   44.6725 C   0  0  1  0  0  0  0  0  0  0  0  0
   71.0373   29.7486   43.8619 O   0  0  0  0  0  0  0  0  0  0  0  0
   68.8070   29.6146   44.7483 C   0  0  2  0  0  0  0  0  0  0  0  0
   69.5053   21.4339   45.5804 C   0  0  1  0  0  0  0  0  0  0  0  0
   69.5869   29.4728   49.9119 N   0  0  0  0  0  0  0  0  0  0  0  0
   70.5070   29.6645   48.9105 C   0  0  0  0  0  0  0  0  0  0  0  0
   68.1237   22.0259   45.2653 C   0  0  2  0  0  0  0  0  0  0  0  0
   71.8770   29.8577   49.2416 N   0  0  0  0  0  0  0  0  0  0  0  0
   67.3437   21.1279   44.5033 O   0  0  0  0  0  0  0  0  0  0  0  0
   68.4530   23.2748   44.4754 C   0  0  2  0  0  0  0  0  0  0  0  0
   70.1189   29.6723   47.5931 N   0  0  0  0  0  0  0  0  0  0  0  0
   67.4551   23.5808   43.5175 O   0  0  0  0  0  0  0  0  0  0  0  0
   68.8048   29.4862   47.3041 C   0  0  0  0  0  0  0  0  0  0  0  0
   69.7396   22.8340   43.7851 C   0  0  2  0  0  0  0  0  0  0  0  0
   70.4546   22.0261   44.7061 O   0  0  0  0  0  0  0  0  0  0  0  0
   67.8747   29.2970   48.2803 C   0  0  0  0  0  0  0  0  0  0  0  0
   70.6031   24.0063   43.3204 C   0  0  0  0  0  0  0  0  0  0  0  0
   71.0123   24.7129   44.4586 O   0  0  0  0  0  0  0  0  0  0  0  0
   68.2640   29.2871   49.6296 C   0  0  0  0  0  0  0  0  0  0  0  0
   67.4337   29.1157   50.5644 O   0  0  0  0  0  0  0  0  0  0  0  0
   66.6538   29.1482   47.7299 N   0  0  0  0  0  0  0  0  0  0  0  0
   66.8967   29.2552   46.3932 C   0  0  0  0  0  0  0  0  0  0  0  0
   68.2093   29.4559   46.0916 N   0  0  0  0  0  0  0  0  0  0  0  0
   69.0120   19.6621   50.4200 N   0  0  0  0  0  0  0  0  0  0  0  0
   73.0784   25.6719   43.1322 O   0  0  0  0  0  0  0  0  0  0  0  0
   68.5358   19.1375   49.2437 C   0  0  0  0  0  0  0  0  0  0  0  0
   67.7774   17.9334   49.2593 N   0  0  0  0  0  0  0  0  0  0  0  0
   72.4962   26.7419   45.4401 O   0  0  0  0  0  0  0  0  0  0  0  0
   68.7853   19.7615   48.0510 N   0  0  0  0  0  0  0  0  0  0  0  0
   69.5113   20.9070   48.0558 C   0  0  0  0  0  0  0  0  0  0  0  0
   69.9933   21.4545   49.2037 C   0  0  0  0  0  0  0  0  0  0  0  0
   69.7427   20.8175   50.4363 C   0  0  0  0  0  0  0  0  0  0  0  0
   70.1683   21.2770   51.5314 O   0  0  0  0  0  0  0  0  0  0  0  0
   70.6666   22.5910   48.9157 N   0  0  0  0  0  0  0  0  0  0  0  0
   70.5605   22.6860   47.5550 C   0  0  0  0  0  0  0  0  0  0  0  0
   69.8668   21.6566   46.9960 N   0  0  0  0  0  0  0  0  0  0  0  0
   65.3550   23.7516   45.4803 H   0  0  0  0  0  0  0  0  0  0  0  0
   68.3762   25.9718   42.3325 H   0  0  0  0  0  0  0  0  0  0  0  0
   66.9442   27.0655   42.2930 H   0  0  0  0  0  0  0  0  0  0  0  0
   69.0611   28.3546   42.1452 H   0  0  0  0  0  0  0  0  0  0  0  0
   69.6225   26.9110   44.8061 H   0  0  0  0  0  0  0  0  0  0  0  0
   70.6395   28.8276   45.6852 H   0  0  0  0  0  0  0  0  0  0  0  0
   70.6308   30.6525   43.8088 H   0  0  0  0  0  0  0  0  0  0  0  0
   68.8789   30.7019   44.5256 H   0  0  0  0  0  0  0  0  0  0  0  0
   69.5014   20.3374   45.3900 H   0  0  0  0  0  0  0  0  0  0  0  0
   69.9016   29.4701   50.9088 H   0  0  0  0  0  0  0  0  0  0  0  0
   67.5643   22.2874   46.1902 H   0  0  0  0  0  0  0  0  0  0  0  0
   72.6113   29.7913   48.5024 H   0  0  0  0  0  0  0  0  0  0  0  0
   72.1663   30.0668   50.2229 H   0  0  0  0  0  0  0  0  0  0  0  0
   66.3841   21.2777   44.7067 H   0  0  0  0  0  0  0  0  0  0  0  0
   68.6823   24.1069   45.1855 H   0  0  0  0  0  0  0  0  0  0  0  0
   69.5013   22.2211   42.8859 H   0  0  0  0  0  0  0  0  0  0  0  0
   70.0355   24.6407   42.6163 H   0  0  0  0  0  0  0  0  0  0  0  0
   71.4885   23.5905   42.7890 H   0  0  0  0  0  0  0  0  0  0  0  0
   66.1104   29.1955   45.6538 H   0  0  0  0  0  0  0  0  0  0  0  0
   68.8127   19.1710   51.3211 H   0  0  0  0  0  0  0  0  0  0  0  0
   67.5756   17.4402   50.1571 H   0  0  0  0  0  0  0  0  0  0  0  0
   67.4128   17.5290   48.3683 H   0  0  0  0  0  0  0  0  0  0  0  0
   73.0852   27.4833   45.1501 H   0  0  0  0  0  0  0  0  0  0  0  0
   70.9838   23.5022   46.9849 H   0  0  0  0  0  0  0  0  0  0  0  0
  3  1  2  0
  1  4  1  1
  6  5  1  0
  6  1  1  0
  7  5  1  0
  8  7  1  0
  9  7  1  0
  9 10  1  0
 10  2  1  0
 11  9  1  0
 11 12  1  0
 13 11  1  0
 13  8  1  0
 16 15  1  0
 17 14  1  0
 18 16  1  0
 17 19  1  0
 20 17  1  0
 21 16  2  0
 20 22  1  0
 22  1  1  0
 23 21  1  0
 24 20  1  0
 25 14  1  0
 25 24  1  0
 26 23  2  0
 24 27  1  0
 28 27  1  0
 28  2  1  0
 29 26  1  0
 29 15  1  0
 30 29  2  0
 31 26  1  0
 32 31  2  0
 33 32  1  0
 33 23  1  0
 13 33  1  0
 35  2  2  0
 36 34  1  0
 37 36  1  0
  2 38  1  1
 39 36  2  0
 40 39  1  0
 41 40  2  0
 42 41  1  0
 42 34  1  0
 43 42  2  0
 44 41  1  0
 45 44  2  0
 46 40  1  0
 14 46  1  0
 46 45  1  0
  4 47  1  0
  5 48  1  0
  5 49  1  0
  7 50  1  6
  9 51  1  1
 11 52  1  1
 12 53  1  0
 13 54  1  6
 14 55  1  6
 15 56  1  0
 17 57  1  1
 18 58  1  0
 18 59  1  0
 19 60  1  0
 20 61  1  1
 24 62  1  6
 27 63  1  0
 27 64  1  0
 32 65  1  0
 34 66  1  0
 37 67  1  0
 37 68  1  0
 38 69  1  0
 45 70  1  0
M  END
