
     RDKit          3D

 70 76  0  0  0  0  0  0  0  0999 V2000
   66.7019   25.0889   44.2801 P   0  0  2  0  0  0  0  0  0  0  0  0
   72.1224   26.2700   44.2514 P   0  0  1  0  0  0  0  0  0  0  0  0
   65.5558   25.2890   43.3190 O   0  0  0  0  0  0  0  0  0  0  0  0
   66.1143   24.7664   45.8214 O   0  0  0  0  0  0  0  0  0  0  0  0
   68.0246   26.9519   43.1292 C   0  0  0  0  0  0  0  0  0  0  0  0
   67.6117   26.5030   44.3927 O   0  0  0  0  0  0  0  0  0  0  0  0
   68.9158   28.1772   43.3676 C   0  0  1  0  0  0  0  0  0  0  0  0
   68.1804   29.2079   44.0021 O   0  0  0  0  0  0  0  0  0  0  0  0
   70.1144   27.8427   44.2454 C   0  0  1  0  0  0  0  0  0  0  0  0
   71.1766   27.4044   43.4246 O   0  0  0  0  0  0  0  0  0  0  0  0
   70.3932   29.1719   44.9071 C   0  0  1  0  0  0  0  0  0  0  0  0
   71.2374   29.9530   44.0965 O   0  0  0  0  0  0  0  0  0  0  0  0
   69.0070   29.8189   44.9828 C   0  0  2  0  0  0  0  0  0  0  0  0
   69.7054   21.6382   45.8150 C   0  0  1  0  0  0  0  0  0  0  0  0
   69.8096   29.4898   50.1345 N   0  0  0  0  0  0  0  0  0  0  0  0
   70.7334   29.6526   49.1312 C   0  0  0  0  0  0  0  0  0  0  0  0
   68.3238   22.2302   45.4999 C   0  0  2  0  0  0  0  0  0  0  0  0
   72.1146   29.7534   49.4565 N   0  0  0  0  0  0  0  0  0  0  0  0
   67.5438   21.3322   44.7378 O   0  0  0  0  0  0  0  0  0  0  0  0
   68.6530   23.4791   44.7100 C   0  0  2  0  0  0  0  0  0  0  0  0
   70.3381   29.7197   47.8176 N   0  0  0  0  0  0  0  0  0  0  0  0
   67.6552   23.7852   43.7521 O   0  0  0  0  0  0  0  0  0  0  0  0
   69.0133   29.6214   47.5342 C   0  0  0  0  0  0  0  0  0  0  0  0
   69.9397   23.0383   44.0197 C   0  0  2  0  0  0  0  0  0  0  0  0
   70.6547   22.2304   44.9407 O   0  0  0  0  0  0  0  0  0  0  0  0
   68.0797   29.4624   48.5125 C   0  0  0  0  0  0  0  0  0  0  0  0
   70.8032   24.2106   43.5550 C   0  0  0  0  0  0  0  0  0  0  0  0
   71.2124   24.9172   44.6932 O   0  0  0  0  0  0  0  0  0  0  0  0
   68.4762   29.3923   49.8579 C   0  0  0  0  0  0  0  0  0  0  0  0
   67.6429   29.2461   50.7943 O   0  0  0  0  0  0  0  0  0  0  0  0
   66.8485   29.4029   47.9680 N   0  0  0  0  0  0  0  0  0  0  0  0
   67.0890   29.5313   46.6328 C   0  0  0  0  0  0  0  0  0  0  0  0
   68.4094   29.6603   46.3262 N   0  0  0  0  0  0  0  0  0  0  0  0
   68.1825   23.6963   50.3149 N   0  0  0  0  0  0  0  0  0  0  0  0
   73.2785   25.8763   43.3668 O   0  0  0  0  0  0  0  0  0  0  0  0
   67.5207   23.6335   49.1133 C   0  0  0  0  0  0  0  0  0  0  0  0
   66.2199   24.1972   48.9892 N   0  0  0  0  0  0  0  0  0  0  0  0
   72.6963   26.9462   45.6747 O   0  0  0  0  0  0  0  0  0  0  0  0
   68.1001   23.0304   48.0295 N   0  0  0  0  0  0  0  0  0  0  0  0
   69.3394   22.4973   48.1673 C   0  0  0  0  0  0  0  0  0  0  0  0
   70.0229   22.5467   49.3422 C   0  0  0  0  0  0  0  0  0  0  0  0
   69.4330   23.1643   50.4640 C   0  0  0  0  0  0  0  0  0  0  0  0
   70.0179   23.2357   51.5794 O   0  0  0  0  0  0  0  0  0  0  0  0
   71.2275   21.9516   49.1909 N   0  0  0  0  0  0  0  0  0  0  0  0
   71.2211   21.5514   47.8827 C   0  0  0  0  0  0  0  0  0  0  0  0
   70.0669   21.8609   47.2306 N   0  0  0  0  0  0  0  0  0  0  0  0
   66.7287   25.2463   46.4323 H   0  0  0  0  0  0  0  0  0  0  0  0
   68.5763   26.1761   42.5670 H   0  0  0  0  0  0  0  0  0  0  0  0
   67.1443   27.2699   42.5276 H   0  0  0  0  0  0  0  0  0  0  0  0
   69.2612   28.5590   42.3797 H   0  0  0  0  0  0  0  0  0  0  0  0
   69.8225   27.1153   45.0407 H   0  0  0  0  0  0  0  0  0  0  0  0
   70.8396   29.0319   45.9198 H   0  0  0  0  0  0  0  0  0  0  0  0
   71.1248   30.8955   44.3866 H   0  0  0  0  0  0  0  0  0  0  0  0
   69.0790   30.9062   44.7602 H   0  0  0  0  0  0  0  0  0  0  0  0
   69.7015   20.5418   45.6246 H   0  0  0  0  0  0  0  0  0  0  0  0
   70.1299   29.4409   51.1284 H   0  0  0  0  0  0  0  0  0  0  0  0
   67.7643   22.4918   46.4248 H   0  0  0  0  0  0  0  0  0  0  0  0
   72.4399   30.4543   50.1586 H   0  0  0  0  0  0  0  0  0  0  0  0
   72.8188   29.1320   49.0002 H   0  0  0  0  0  0  0  0  0  0  0  0
   66.5861   21.4614   44.9635 H   0  0  0  0  0  0  0  0  0  0  0  0
   68.8824   24.3112   45.4201 H   0  0  0  0  0  0  0  0  0  0  0  0
   69.7014   22.4254   43.1205 H   0  0  0  0  0  0  0  0  0  0  0  0
   70.2355   24.8451   42.8509 H   0  0  0  0  0  0  0  0  0  0  0  0
   71.6885   23.7948   43.0235 H   0  0  0  0  0  0  0  0  0  0  0  0
   66.2958   29.5394   45.8984 H   0  0  0  0  0  0  0  0  0  0  0  0
   67.7237   24.1596   51.1321 H   0  0  0  0  0  0  0  0  0  0  0  0
   65.7585   24.6613   49.8027 H   0  0  0  0  0  0  0  0  0  0  0  0
   65.7112   24.1524   48.0785 H   0  0  0  0  0  0  0  0  0  0  0  0
   73.2853   27.6876   45.3847 H   0  0  0  0  0  0  0  0  0  0  0  0
   72.0547   21.0435   47.4161 H   0  0  0  0  0  0  0  0  0  0  0  0
  3  1  2  0
  1  4  1  1
  6  5  1  0
  6  1  1  0
  7  5  1  0
  8  7  1  0
  9  7  1  0
  9 10  1  0
 10  2  1  0
 11  9  1  0
 11 12  1  0
 13 11  1  0
 13  8  1  0
 16 15  1  0
 17 14  1  0
 18 16  1  0
 17 19  1  0
 20 17  1  0
 21 16  2  0
 20 22  1  0
 22  1  1  0
 23 21  1  0
 24 20  1  0
 25 14  1  0
 25 24  1  0
 26 23  2  0
 24 27  1  0
 28 27  1  0
 28  2  1  0
 29 26  1  0
 29 15  1  0
 30 29  2  0
 31 26  1  0
 32 31  2  0
 33 32  1  0
 33 23  1  0
 13 33  1  0
 35  2  2  0
 36 34  1  0
 37 36  1  0
  2 38  1  1
 39 36  2  0
 40 39  1  0
 41 40  2  0
 42 41  1  0
 42 34  1  0
 43 42  2  0
 44 41  1  0
 45 44  2  0
 46 40  1  0
 14 46  1  0
 46 45  1  0
  4 47  1  0
  5 48  1  0
  5 49  1  0
  7 50  1  6
  9 51  1  1
 11 52  1  1
 12 53  1  0
 13 54  1  6
 14 55  1  6
 15 56  1  0
 17 57  1  1
 18 58  1  0
 18 59  1  0
 19 60  1  0
 20 61  1  1
 24 62  1  6
 27 63  1  0
 27 64  1  0
 32 65  1  0
 34 66  1  0
 37 67  1  0
 37 68  1  0
 38 69  1  0
 45 70  1  0
M  END
