
     RDKit          3D

 42 44  0  0  0  0  0  0  0  0999 V2000
   29.2952   79.8256   28.0548 P   0  0  0  0  0  0  0  0  0  0  0  0
   28.4974   76.0127   24.9943 P   0  0  0  0  0  0  0  0  0  0  0  0
   29.6331   79.2489   26.6995 O   0  0  0  0  0  0  0  0  0  0  0  0
   29.3929   81.4999   27.9945 O   0  0  0  0  0  0  0  0  0  0  0  0
   27.7464   79.3812   28.5195 O   0  0  0  0  0  0  0  0  0  0  0  0
   27.1038   75.8375   24.4335 O   0  0  0  0  0  0  0  0  0  0  0  0
   29.2184   74.5068   25.1820 O   0  0  0  0  0  0  0  0  0  0  0  0
   29.3986   76.9780   23.9568 O   0  0  0  0  0  0  0  0  0  0  0  0
   29.5887   77.0757   27.0806 C   0  0  0  0  0  0  0  0  0  0  0  0
   28.3420   76.7556   26.5030 O   0  0  0  0  0  0  0  0  0  0  0  0
   29.2860   77.3744   28.5513 C   0  0  1  0  0  0  0  0  0  0  0  0
   28.8323   76.2096   29.1887 O   0  0  0  0  0  0  0  0  0  0  0  0
   30.4252   77.9375   29.3959 C   0  0  1  0  0  0  0  0  0  0  0  0
   30.4078   79.3367   29.2297 O   0  0  0  0  0  0  0  0  0  0  0  0
   29.9983   77.4992   30.8098 C   0  0  1  0  0  0  0  0  0  0  0  0
   29.5737   78.5782   31.6104 O   0  0  0  0  0  0  0  0  0  0  0  0
   28.8266   76.5297   30.5520 C   0  0  2  0  0  0  0  0  0  0  0  0
   31.5532   72.5388   32.4756 N   0  0  0  0  0  0  0  0  0  0  0  0
   31.9974   73.5614   31.6810 C   0  0  0  0  0  0  0  0  0  0  0  0
   31.1404   74.5252   31.2355 N   0  0  0  0  0  0  0  0  0  0  0  0
   29.8408   74.4344   31.6057 C   0  0  0  0  0  0  0  0  0  0  0  0
   29.3690   73.4237   32.3788 C   0  0  0  0  0  0  0  0  0  0  0  0
   30.2439   72.4409   32.8393 C   0  0  0  0  0  0  0  0  0  0  0  0
   29.8160   71.3711   33.6728 N   0  0  0  0  0  0  0  0  0  0  0  0
   28.0521   73.5863   32.6199 N   0  0  0  0  0  0  0  0  0  0  0  0
   27.7686   74.7430   31.9646 C   0  0  0  0  0  0  0  0  0  0  0  0
   28.8486   75.3030   31.3556 N   0  0  0  0  0  0  0  0  0  0  0  0
   28.6489   81.7760   27.4018 H   0  0  0  0  0  0  0  0  0  0  0  0
   27.4701   80.0750   29.1701 H   0  0  0  0  0  0  0  0  0  0  0  0
   28.8129   73.9322   24.4852 H   0  0  0  0  0  0  0  0  0  0  0  0
   29.1792   77.9100   24.2090 H   0  0  0  0  0  0  0  0  0  0  0  0
   30.0070   77.9829   26.5924 H   0  0  0  0  0  0  0  0  0  0  0  0
   30.3156   76.2351   27.0179 H   0  0  0  0  0  0  0  0  0  0  0  0
   28.4501   78.1199   28.5606 H   0  0  0  0  0  0  0  0  0  0  0  0
   31.3923   77.4726   29.0928 H   0  0  0  0  0  0  0  0  0  0  0  0
   30.8570   77.0190   31.3138 H   0  0  0  0  0  0  0  0  0  0  0  0
   28.8352   79.0498   31.1423 H   0  0  0  0  0  0  0  0  0  0  0  0
   27.8638   77.0528   30.7634 H   0  0  0  0  0  0  0  0  0  0  0  0
   33.0421   73.6084   31.4061 H   0  0  0  0  0  0  0  0  0  0  0  0
   29.3300   70.5444   33.2597 H   0  0  0  0  0  0  0  0  0  0  0  0
   29.9791   71.3964   34.7039 H   0  0  0  0  0  0  0  0  0  0  0  0
   26.7769   75.1765   31.9413 H   0  0  0  0  0  0  0  0  0  0  0  0
  3  1  2  0
  4  1  1  0
  5  1  1  0
  6  2  2  0
  7  2  1  0
  8  2  1  0
 10  2  1  0
 10  9  1  0
 11  9  1  0
 12 11  1  0
 13 11  1  0
 13 14  1  0
 14  1  1  0
 15 13  1  0
 15 16  1  0
 17 12  1  0
 17 15  1  0
 19 18  2  0
 20 19  1  0
 21 20  2  0
 22 21  1  0
 23 22  2  0
 23 18  1  0
 24 23  1  0
 25 22  1  0
 26 25  2  0
 27 26  1  0
 27 21  1  0
 17 27  1  0
  4 28  1  0
  5 29  1  0
  7 30  1  0
  8 31  1  0
  9 32  1  0
  9 33  1  0
 11 34  1  6
 13 35  1  6
 15 36  1  1
 16 37  1  0
 17 38  1  1
 19 39  1  0
 24 40  1  0
 24 41  1  0
 26 42  1  0
M  END
