
     RDKit          3D

 19 18  0  0  0  0  0  0  0  0999 V2000
   23.9718   72.2907  -50.2575 P   0  0  0  0  0  0  0  0  0  0  0  0
   22.6877   71.2759  -51.0189 C   0  0  0  0  0  0  0  0  0  0  0  0
   21.4027   71.5305  -50.3781 N   0  0  0  0  0  0  0  0  0  0  0  0
   24.0312   73.5758  -51.0442 O   0  0  0  0  0  0  0  0  0  0  0  0
   20.3310   70.7947  -51.0547 C   0  0  0  0  0  0  0  0  0  0  0  0
   25.4328   71.4654  -50.3350 O   0  0  0  0  0  0  0  0  0  0  0  0
   20.0001   69.5161  -50.3456 C   0  0  0  0  0  0  0  0  0  0  0  0
   23.6064   72.6113  -48.6463 O   0  0  0  0  0  0  0  0  0  0  0  0
   19.2803   68.6678  -50.9306 O   0  0  0  0  0  0  0  0  0  0  0  0
   20.4342   69.2478  -49.0538 O   0  0  0  0  0  0  0  0  0  0  0  0
   22.9706   70.2045  -50.9226 H   0  0  0  0  0  0  0  0  0  0  0  0
   22.6363   71.5378  -52.0995 H   0  0  0  0  0  0  0  0  0  0  0  0
   21.2120   72.5553  -50.4691 H   0  0  0  0  0  0  0  0  0  0  0  0
   21.4511   71.2467  -49.3706 H   0  0  0  0  0  0  0  0  0  0  0  0
   20.6384   70.5512  -52.0968 H   0  0  0  0  0  0  0  0  0  0  0  0
   19.4071   71.4140  -51.0972 H   0  0  0  0  0  0  0  0  0  0  0  0
   25.6132   71.3558  -51.3028 H   0  0  0  0  0  0  0  0  0  0  0  0
   24.2577   72.0770  -48.1253 H   0  0  0  0  0  0  0  0  0  0  0  0
   20.0897   68.4962  -48.4737 H   0  0  0  0  0  0  0  0  0  0  0  0
  2  1  1  0
  3  2  1  0
  4  1  2  0
  5  3  1  0
  6  1  1  0
  7  5  1  0
  8  1  1  0
  9  7  2  0
 10  7  1  0
  2 11  1  0
  2 12  1  0
  3 13  1  0
  3 14  1  0
  5 15  1  0
  5 16  1  0
  6 17  1  0
  8 18  1  0
 10 19  1  0
M  CHG  1   3   1
M  END
