
     RDKit          3D

 14 14  0  0  0  0  0  0  0  0999 V2000
  -10.5682   -2.8076    9.6044 N   0  0  0  0  0  0  0  0  0  0  0  0
  -11.8067   -2.3353   10.1310 C   0  0  0  0  0  0  0  0  0  0  0  0
  -11.8177   -1.5559   11.1158 O   0  0  0  0  0  0  0  0  0  0  0  0
  -13.0313   -2.8079    9.5861 N   0  0  0  0  0  0  0  0  0  0  0  0
  -12.9880   -3.9442    8.7359 C   0  0  0  0  0  0  0  0  0  0  0  0
  -13.8091   -4.8841    8.9173 O   0  0  0  0  0  0  0  0  0  0  0  0
  -11.7905   -4.1506    7.8781 C   0  0  0  0  0  0  0  0  0  0  0  0
  -10.4988   -3.9214    8.6611 C   0  0  0  0  0  0  0  0  0  0  0  0
   -9.6779   -2.4659   10.0315 H   0  0  0  0  0  0  0  0  0  0  0  0
  -13.9349   -2.5289   10.0304 H   0  0  0  0  0  0  0  0  0  0  0  0
  -11.8380   -3.4203    7.0420 H   0  0  0  0  0  0  0  0  0  0  0  0
  -11.7908   -5.1727    7.4399 H   0  0  0  0  0  0  0  0  0  0  0  0
  -10.2597   -4.8452    9.2310 H   0  0  0  0  0  0  0  0  0  0  0  0
   -9.6661   -3.7450    7.9467 H   0  0  0  0  0  0  0  0  0  0  0  0
  2  1  1  0
  3  2  2  0
  4  2  1  0
  5  4  1  0
  6  5  2  0
  7  5  1  0
  8  7  1  0
  8  1  1  0
  1  9  1  0
  4 10  1  0
  7 11  1  0
  7 12  1  0
  8 13  1  0
  8 14  1  0
M  END
