
     RDKit          3D

 73 80  0  0  0  0  0  0  0  0999 V2000
    8.6391   24.2602   33.7979 C   0  0  0  0  0  0  0  0  0  0  0  0
   13.9348   23.1689   33.9480 C   0  0  0  0  0  0  0  0  0  0  0  0
    9.2145   20.8615   35.2558 N   0  0  0  0  0  0  0  0  0  0  0  0
    8.4512   25.2987   34.9053 C   0  0  0  0  0  0  0  0  0  0  0  0
   13.7578   23.0755   32.4278 C   0  0  0  0  0  0  0  0  0  0  0  0
    8.6851   18.4975   36.6243 N   0  0  0  0  0  0  0  0  0  0  0  0
    7.4310   24.8693   35.9120 C   0  0  0  0  0  0  0  0  0  0  0  0
   13.9320   24.4111   31.7801 C   0  0  0  0  0  0  0  0  0  0  0  0
   11.9797   20.3450   35.4660 N   0  0  0  0  0  0  0  0  0  0  0  0
   10.9380   22.3911   34.6244 C   0  0  0  0  0  0  0  0  0  0  0  0
    7.0279   19.9514   35.5698 C   0  0  0  0  0  0  0  0  0  0  0  0
    9.6524   16.7360   38.0508 C   0  0  0  0  0  0  0  0  0  0  0  0
   13.7108   18.7338   36.1301 C   0  0  0  0  0  0  0  0  0  0  0  0
    6.0149   22.6133   34.4731 C   0  0  0  0  0  0  0  0  0  0  0  0
    5.0039   17.7892   36.7085 C   0  0  0  0  0  0  0  0  0  0  0  0
   12.0674   15.0188   39.0936 C   0  0  0  0  0  0  0  0  0  0  0  0
   15.7238   20.7663   34.8998 C   0  0  0  0  0  0  0  0  0  0  0  0
    6.7306   15.7891   38.4424 C   0  0  0  0  0  0  0  0  0  0  0  0
   14.6609   16.2411   37.7170 C   0  0  0  0  0  0  0  0  0  0  0  0
    9.6506   22.0463   34.7551 C   0  0  0  0  0  0  0  0  0  0  0  0
    7.4481   18.7634   36.3159 C   0  0  0  0  0  0  0  0  0  0  0  0
   11.0602   17.0135   37.7553 C   0  0  0  0  0  0  0  0  0  0  0  0
   13.3221   19.8715   35.5509 C   0  0  0  0  0  0  0  0  0  0  0  0
    6.2684   25.3543   35.9036 O   0  0  0  0  0  0  0  0  0  0  0  0
   13.3093   24.6815   30.7196 O   0  0  0  0  0  0  0  0  0  0  0  0
    8.5842   22.8612   34.3728 C   0  0  0  0  0  0  0  0  0  0  0  0
    6.5002   17.8030   36.9017 C   0  0  0  0  0  0  0  0  0  0  0  0
   12.1261   16.2327   38.2021 C   0  0  0  0  0  0  0  0  0  0  0  0
   14.2252   20.8602   34.9734 C   0  0  0  0  0  0  0  0  0  0  0  0
    7.7932   23.9700   36.8986 O   0  0  0  0  0  0  0  0  0  0  0  0
   14.8123   25.3346   32.3222 O   0  0  0  0  0  0  0  0  0  0  0  0
    7.4394   22.1461   34.6509 C   0  0  0  0  0  0  0  0  0  0  0  0
    7.2166   16.9746   37.6554 C   0  0  0  0  0  0  0  0  0  0  0  0
   13.2463   16.7401   37.5868 C   0  0  0  0  0  0  0  0  0  0  0  0
   13.4667   21.8946   34.6149 C   0  0  0  0  0  0  0  0  0  0  0  0
    7.8608   20.9229   35.1697 C   0  0  0  0  0  0  0  0  0  0  0  0
    8.6122   17.3688   37.4902 C   0  0  0  0  0  0  0  0  0  0  0  0
   12.8160   17.8375   36.8544 C   0  0  0  0  0  0  0  0  0  0  0  0
   12.0760   21.5213   34.9185 C   0  0  0  0  0  0  0  0  0  0  0  0
   11.4791   18.0048   36.9397 N   0  0  0  0  0  0  0  0  0  0  0  0
   10.3327   19.4022   36.0283 Fe  0  0  1  0  0  4  0  0  0  0  0  0
    7.8369   24.3762   33.0383 H   0  0  0  0  0  0  0  0  0  0  0  0
    9.5890   24.4371   33.2550 H   0  0  0  0  0  0  0  0  0  0  0  0
   13.3539   24.0272   34.3468 H   0  0  0  0  0  0  0  0  0  0  0  0
   14.9981   23.3658   34.2003 H   0  0  0  0  0  0  0  0  0  0  0  0
    9.4186   25.4754   35.4235 H   0  0  0  0  0  0  0  0  0  0  0  0
    8.1208   26.2605   34.4568 H   0  0  0  0  0  0  0  0  0  0  0  0
   14.5102   22.3740   32.0075 H   0  0  0  0  0  0  0  0  0  0  0  0
   12.7434   22.6853   32.1921 H   0  0  0  0  0  0  0  0  0  0  0  0
   11.1793   23.3683   34.2406 H   0  0  0  0  0  0  0  0  0  0  0  0
    5.9647   20.0968   35.4365 H   0  0  0  0  0  0  0  0  0  0  0  0
    9.4463   15.8901   38.6899 H   0  0  0  0  0  0  0  0  0  0  0  0
   14.7656   18.5021   36.1503 H   0  0  0  0  0  0  0  0  0  0  0  0
    5.9593   23.6667   34.1355 H   0  0  0  0  0  0  0  0  0  0  0  0
    5.5080   21.9740   33.7208 H   0  0  0  0  0  0  0  0  0  0  0  0
    5.4758   22.5360   35.4402 H   0  0  0  0  0  0  0  0  0  0  0  0
    4.7422   18.1557   35.6951 H   0  0  0  0  0  0  0  0  0  0  0  0
    4.6027   16.7588   36.7964 H   0  0  0  0  0  0  0  0  0  0  0  0
    4.5257   18.4387   37.4704 H   0  0  0  0  0  0  0  0  0  0  0  0
   11.8553   14.1182   38.4811 H   0  0  0  0  0  0  0  0  0  0  0  0
   13.0258   14.8801   39.6342 H   0  0  0  0  0  0  0  0  0  0  0  0
   11.2757   15.1386   39.8609 H   0  0  0  0  0  0  0  0  0  0  0  0
   16.0394   19.7198   34.7136 H   0  0  0  0  0  0  0  0  0  0  0  0
   16.1653   21.1214   35.8538 H   0  0  0  0  0  0  0  0  0  0  0  0
   16.1200   21.3739   34.0609 H   0  0  0  0  0  0  0  0  0  0  0  0
    5.6459   15.8685   38.6589 H   0  0  0  0  0  0  0  0  0  0  0  0
    6.9224   14.8589   37.8685 H   0  0  0  0  0  0  0  0  0  0  0  0
    7.2556   15.7364   39.4182 H   0  0  0  0  0  0  0  0  0  0  0  0
   15.2111   16.8718   38.4457 H   0  0  0  0  0  0  0  0  0  0  0  0
   15.1733   16.2802   36.7337 H   0  0  0  0  0  0  0  0  0  0  0  0
   14.6830   15.1858   38.0561 H   0  0  0  0  0  0  0  0  0  0  0  0
    7.1285   23.6768   37.6048 H   0  0  0  0  0  0  0  0  0  0  0  0
   14.4709   26.1667   32.7884 H   0  0  0  0  0  0  0  0  0  0  0  0
  4  1  1  0
  5  2  1  0
  7  4  1  0
  8  5  1  0
 20  3  1  0
 20 10  2  0
 21 11  1  0
 21  6  2  0
 22 12  1  0
 23 13  2  0
 23  9  1  0
 24  7  2  0
 25  8  2  0
 26 20  1  0
 26  1  1  0
 27 15  1  0
 27 21  1  0
 28 16  1  0
 28 22  2  0
 29 23  1  0
 29 17  1  0
 30  7  1  0
 31  8  1  0
 32 26  2  0
 32 14  1  0
 33 27  2  0
 33 18  1  0
 34 19  1  0
 34 28  1  0
 35 29  2  0
 35  2  1  0
 36 11  2  0
 36  3  1  0
 36 32  1  0
 37 33  1  0
 37  6  1  0
 37 12  2  0
 38 34  2  0
 38 13  1  0
 39  9  2  0
 39 35  1  0
 39 10  1  0
 40 38  1  0
 40 22  1  0
 41  6  1  0
 41  3  1  0
 41 40  1  0
 41  9  1  0
  1 42  1  0
  1 43  1  0
  2 44  1  0
  2 45  1  0
  4 46  1  0
  4 47  1  0
  5 48  1  0
  5 49  1  0
 10 50  1  0
 11 51  1  0
 12 52  1  0
 13 53  1  0
 14 54  1  0
 14 55  1  0
 14 56  1  0
 15 57  1  0
 15 58  1  0
 15 59  1  0
 16 60  1  0
 16 61  1  0
 16 62  1  0
 17 63  1  0
 17 64  1  0
 17 65  1  0
 18 66  1  0
 18 67  1  0
 18 68  1  0
 19 69  1  0
 19 70  1  0
 19 71  1  0
 30 72  1  0
 31 73  1  0
M  CHG  3   6   1   9   1  41   3
M  END
