
     RDKit          3D

 80 83  0  0  0  0  0  0  0  0999 V2000
   21.0245   26.5664   14.8622 C   0  0  0  0  0  0  0  0  0  0  0  0
   21.6230   25.4195   15.4166 C   0  0  0  0  0  0  0  0  0  0  0  0
   20.8492   24.3000   15.6836 C   0  0  0  0  0  0  0  0  0  0  0  0
   19.4802   24.3158   15.4067 C   0  0  0  0  0  0  0  0  0  0  0  0
   18.8914   25.4381   14.8203 C   0  0  0  0  0  0  0  0  0  0  0  0
   19.6682   26.5584   14.5456 C   0  0  0  0  0  0  0  0  0  0  0  0
   18.5017   22.9479   15.8533 S   0  0  0  0  0  0  0  0  0  0  0  0
   17.4253   22.7701   14.8280 O   0  0  0  0  0  0  0  0  0  0  0  0
   19.3710   21.7266   15.8994 O   0  0  0  0  0  0  0  0  0  0  0  0
   17.8000   23.1479   17.4234 N   0  0  0  0  0  0  0  0  0  0  0  0
   18.7124   23.8355   18.3514 C   0  0  0  0  0  0  0  0  0  0  0  0
   18.7960   23.0809   19.6899 C   0  0  0  0  0  0  0  0  0  0  0  0
   20.2425   22.6630   20.0071 C   0  0  0  0  0  0  0  0  0  0  0  0
   18.2335   23.9567   20.8141 C   0  0  0  0  0  0  0  0  0  0  0  0
   16.4163   23.6571   17.4026 C   0  0  0  0  0  0  0  0  0  0  0  0
   15.5266   22.6982   18.2056 C   0  0  1  0  0  0  0  0  0  0  0  0
   14.7379   23.4266   19.1129 O   0  0  0  0  0  0  0  0  0  0  0  0
   14.6396   21.7955   17.3227 C   0  0  1  0  0  0  0  0  0  0  0  0
   14.0543   20.7937   18.1885 N   0  0  0  0  0  0  0  0  0  0  0  0
   14.4296   19.4377   18.1774 C   0  0  0  0  0  0  0  0  0  0  0  0
   15.2901   18.9887   17.3719 O   0  0  0  0  0  0  0  0  0  0  0  0
   13.7979   18.6149   19.0787 O   0  0  0  0  0  0  0  0  0  0  0  0
   13.9794   17.2153   19.0888 C   0  0  1  0  0  0  0  0  0  0  0  0
   13.2348   16.6818   20.3016 C   0  0  0  0  0  0  0  0  0  0  0  0
   11.8210   16.4137   19.8016 C   0  0  1  0  0  0  0  0  0  0  0  0
   11.1082   17.6423   19.7564 O   0  0  0  0  0  0  0  0  0  0  0  0
    9.9237   17.4924   19.0054 C   0  0  0  0  0  0  0  0  0  0  0  0
   10.2774   17.1160   17.5717 C   0  0  0  0  0  0  0  0  0  0  0  0
   10.9445   15.8717   17.5368 O   0  0  0  0  0  0  0  0  0  0  0  0
   12.0727   15.8455   18.4014 C   0  0  1  0  0  0  0  0  0  0  0  0
   13.4840   22.5322   16.6204 C   0  0  0  0  0  0  0  0  0  0  0  0
   13.1290   21.0985   14.5683 C   0  0  0  0  0  0  0  0  0  0  0  0
   12.4039   20.1510   13.8407 C   0  0  0  0  0  0  0  0  0  0  0  0
   11.1936   19.6619   14.3337 C   0  0  0  0  0  0  0  0  0  0  0  0
   10.7052   20.1286   15.5551 C   0  0  0  0  0  0  0  0  0  0  0  0
   11.4313   21.0723   16.2902 C   0  0  0  0  0  0  0  0  0  0  0  0
   12.6510   21.5704   15.8000 C   0  0  0  0  0  0  0  0  0  0  0  0
   21.7306   27.7455   14.6517 O   0  0  0  0  0  0  0  0  0  0  0  0
   23.1275   27.7602   14.4145 C   0  0  0  0  0  0  0  0  0  0  0  0
   13.3018   16.5829   17.8617 C   0  0  0  0  0  0  0  0  0  0  0  0
   22.6747   25.3894   15.6656 H   0  0  0  0  0  0  0  0  0  0  0  0
   21.3162   23.4324   16.1319 H   0  0  0  0  0  0  0  0  0  0  0  0
   17.8312   25.4564   14.6023 H   0  0  0  0  0  0  0  0  0  0  0  0
   19.2057   27.4379   14.1154 H   0  0  0  0  0  0  0  0  0  0  0  0
   18.3956   24.8905   18.5105 H   0  0  0  0  0  0  0  0  0  0  0  0
   19.7433   23.8782   17.9366 H   0  0  0  0  0  0  0  0  0  0  0  0
   18.1611   22.1723   19.6378 H   0  0  0  0  0  0  0  0  0  0  0  0
   20.5890   21.8859   19.2941 H   0  0  0  0  0  0  0  0  0  0  0  0
   20.3008   22.2350   21.0304 H   0  0  0  0  0  0  0  0  0  0  0  0
   20.9257   23.5371   19.9440 H   0  0  0  0  0  0  0  0  0  0  0  0
   17.8206   23.3293   21.6333 H   0  0  0  0  0  0  0  0  0  0  0  0
   19.0311   24.6097   21.2288 H   0  0  0  0  0  0  0  0  0  0  0  0
   17.4245   24.6095   20.4220 H   0  0  0  0  0  0  0  0  0  0  0  0
   16.3510   24.6629   17.8738 H   0  0  0  0  0  0  0  0  0  0  0  0
   16.0255   23.7870   16.3725 H   0  0  0  0  0  0  0  0  0  0  0  0
   16.2070   22.0279   18.7790 H   0  0  0  0  0  0  0  0  0  0  0  0
   14.6312   22.8732   19.9304 H   0  0  0  0  0  0  0  0  0  0  0  0
   15.2747   21.3118   16.5489 H   0  0  0  0  0  0  0  0  0  0  0  0
   13.3388   21.0908   18.8916 H   0  0  0  0  0  0  0  0  0  0  0  0
   15.0617   16.9616   19.1489 H   0  0  0  0  0  0  0  0  0  0  0  0
   13.6998   15.7271   20.6354 H   0  0  0  0  0  0  0  0  0  0  0  0
   13.2430   17.3967   21.1541 H   0  0  0  0  0  0  0  0  0  0  0  0
   11.2999   15.6830   20.4609 H   0  0  0  0  0  0  0  0  0  0  0  0
    9.3802   18.4607   19.0013 H   0  0  0  0  0  0  0  0  0  0  0  0
    9.2562   16.7263   19.4614 H   0  0  0  0  0  0  0  0  0  0  0  0
    9.3416   17.0328   16.9802 H   0  0  0  0  0  0  0  0  0  0  0  0
   10.8950   17.9097   17.1092 H   0  0  0  0  0  0  0  0  0  0  0  0
   12.3554   14.7762   18.5310 H   0  0  0  0  0  0  0  0  0  0  0  0
   12.8408   23.0380   17.3737 H   0  0  0  0  0  0  0  0  0  0  0  0
   13.8665   23.3306   15.9558 H   0  0  0  0  0  0  0  0  0  0  0  0
   14.0712   21.4440   14.1730 H   0  0  0  0  0  0  0  0  0  0  0  0
   12.7855   19.7899   12.8944 H   0  0  0  0  0  0  0  0  0  0  0  0
   10.6336   18.9273   13.7697 H   0  0  0  0  0  0  0  0  0  0  0  0
    9.7612   19.7597   15.9349 H   0  0  0  0  0  0  0  0  0  0  0  0
   11.0476   21.4067   17.2460 H   0  0  0  0  0  0  0  0  0  0  0  0
   23.5932   28.6412   14.9055 H   0  0  0  0  0  0  0  0  0  0  0  0
   23.3060   27.8345   13.3223 H   0  0  0  0  0  0  0  0  0  0  0  0
   23.5913   26.8199   14.7814 H   0  0  0  0  0  0  0  0  0  0  0  0
   13.9933   15.8577   17.3796 H   0  0  0  0  0  0  0  0  0  0  0  0
   13.0364   17.3438   17.0999 H   0  0  0  0  0  0  0  0  0  0  0  0
  2  1  2  0
  3  2  1  0
  4  3  2  0
  5  4  1  0
  6  5  2  0
  6  1  1  0
  7  4  1  0
  8  7  2  0
  9  7  2  0
  7 10  1  0
 11 10  1  0
 12 11  1  0
 12 13  1  0
 14 12  1  0
 15 10  1  0
 16 15  1  0
 16 17  1  0
 18 16  1  0
 19 18  1  0
 20 19  1  0
 21 20  2  0
 22 20  1  0
 23 22  1  0
 24 23  1  0
 25 24  1  0
 26 25  1  0
 27 26  1  0
 28 27  1  0
 29 28  1  0
 30 29  1  0
 30 25  1  0
 18 31  1  0
 33 32  2  0
 34 33  1  0
 35 34  2  0
 36 35  1  0
 37 36  2  0
 37 32  1  0
 37 31  1  0
 38  1  1  0
 39 38  1  0
 30 40  1  0
 40 23  1  0
  2 41  1  0
  3 42  1  0
  5 43  1  0
  6 44  1  0
 11 45  1  0
 11 46  1  0
 12 47  1  0
 13 48  1  0
 13 49  1  0
 13 50  1  0
 14 51  1  0
 14 52  1  0
 14 53  1  0
 15 54  1  0
 15 55  1  0
 16 56  1  1
 17 57  1  0
 18 58  1  6
 19 59  1  0
 23 60  1  1
 24 61  1  0
 24 62  1  0
 25 63  1  1
 27 64  1  0
 27 65  1  0
 28 66  1  0
 28 67  1  0
 30 68  1  1
 31 69  1  0
 31 70  1  0
 32 71  1  0
 33 72  1  0
 34 73  1  0
 35 74  1  0
 36 75  1  0
 39 76  1  0
 39 77  1  0
 39 78  1  0
 40 79  1  0
 40 80  1  0
M  END
