
     RDKit          3D

 34 36  0  0  0  0  0  0  0  0999 V2000
  104.6674   22.0558  139.8271 C   0  0  0  0  0  0  0  0  0  0  0  0
  104.8620   23.3012  140.3262 C   0  0  0  0  0  0  0  0  0  0  0  0
  105.7039   21.3527  139.2585 C   0  0  0  0  0  0  0  0  0  0  0  0
  106.0656   23.9138  140.2971 N   0  0  0  0  0  0  0  0  0  0  0  0
  106.9701   21.9516  139.2181 C   0  0  0  0  0  0  0  0  0  0  0  0
  107.1311   23.2538  139.7530 C   0  0  0  0  0  0  0  0  0  0  0  0
  102.7628   22.7703  140.4962 C   0  0  0  0  0  0  0  0  0  0  0  0
  103.6648   23.7814  140.7790 C   0  0  0  0  0  0  0  0  0  0  0  0
  103.3832   21.7054  139.9488 N   0  0  0  0  0  0  0  0  0  0  0  0
  108.0787   21.2193  138.5962 C   0  0  0  0  0  0  0  0  0  0  0  0
  109.1780   21.0872  139.1886 O   0  0  0  0  0  0  0  0  0  0  0  0
  107.9263   20.6576  137.2978 N   0  0  0  0  0  0  0  0  0  0  0  0
  102.6374   20.2178  139.5034 S   0  0  0  0  0  0  0  0  0  0  0  0
  102.8926   18.9710  140.7150 C   0  0  0  0  0  0  0  0  0  0  0  0
  103.2002   19.7497  138.2035 O   0  0  0  0  0  0  0  0  0  0  0  0
  101.1868   20.4163  139.2792 O   0  0  0  0  0  0  0  0  0  0  0  0
  103.3880   16.8038  142.4219 C   0  0  0  0  0  0  0  0  0  0  0  0
  104.0073   16.8703  141.1820 C   0  0  0  0  0  0  0  0  0  0  0  0
  102.4969   17.7929  142.8119 C   0  0  0  0  0  0  0  0  0  0  0  0
  103.7604   17.9400  140.3350 C   0  0  0  0  0  0  0  0  0  0  0  0
  102.2422   18.8990  141.9901 C   0  0  0  0  0  0  0  0  0  0  0  0
  101.3354   19.8948  142.4955 N   0  0  0  0  0  0  0  0  0  0  0  0
  100.6916   20.7381  141.6428 O   0  0  0  0  0  0  0  0  0  0  0  0
  101.3409   20.1971  143.7050 O   0  0  0  0  0  0  0  0  0  0  0  0
  105.5224   20.3772  138.8592 H   0  0  0  0  0  0  0  0  0  0  0  0
  108.0960   23.7432  139.7287 H   0  0  0  0  0  0  0  0  0  0  0  0
  101.6961   22.8795  140.5901 H   0  0  0  0  0  0  0  0  0  0  0  0
  103.4542   24.7625  141.1832 H   0  0  0  0  0  0  0  0  0  0  0  0
  107.1839   21.0366  136.6689 H   0  0  0  0  0  0  0  0  0  0  0  0
  108.6787   20.1039  136.8351 H   0  0  0  0  0  0  0  0  0  0  0  0
  103.5877   15.9675  143.0796 H   0  0  0  0  0  0  0  0  0  0  0  0
  104.6908   16.0876  140.8784 H   0  0  0  0  0  0  0  0  0  0  0  0
  102.0266   17.7105  143.7840 H   0  0  0  0  0  0  0  0  0  0  0  0
  104.2721   17.9605  139.3812 H   0  0  0  0  0  0  0  0  0  0  0  0
  2  1  1  0
  3  1  2  0
  4  2  2  0
  5  3  1  0
  6  5  2  0
  6  4  1  0
  8  7  2  0
  8  2  1  0
  9  7  1  0
  9  1  1  0
 10  5  1  0
 11 10  2  0
 12 10  1  0
 13  9  1  0
 14 13  1  0
 15 13  2  0
 16 13  2  0
 18 17  2  0
 19 17  1  0
 20 14  2  0
 20 18  1  0
 21 14  1  0
 21 19  2  0
 22 21  1  0
 23 22  1  0
 24 22  2  0
  3 25  1  0
  6 26  1  0
  7 27  1  0
  8 28  1  0
 12 29  1  0
 12 30  1  0
 17 31  1  0
 18 32  1  0
 19 33  1  0
 20 34  1  0
M  CHG  2  22   1  23  -1
M  END
