
     RDKit          3D

 28 28  0  0  0  0  0  0  0  0999 V2000
   38.6517   71.0159   60.7903 C   0  0  0  0  0  0  0  0  0  0  0  0
   37.8216   70.7619   61.6944 O   0  0  0  0  0  0  0  0  0  0  0  0
   38.4700   70.3962   59.1562 S   0  0  0  0  0  0  0  0  0  0  0  0
   39.8112   71.8301   60.9927 C   0  0  0  0  0  0  0  0  0  0  0  0
   41.7060   72.7099   59.8338 O   0  0  0  0  0  0  0  0  0  0  0  0
   40.5097   71.9967   59.8757 C   0  0  0  0  0  0  0  0  0  0  0  0
   39.9234   71.3899   58.6199 C   0  0  1  0  0  0  0  0  0  0  0  0
   40.9789   70.5071   57.9535 C   0  0  0  0  0  0  0  0  0  0  0  0
   40.7921   69.5580   57.0018 C   0  0  0  0  0  0  0  0  0  0  0  0
   41.9881   68.7924   56.5403 C   0  0  0  0  0  0  0  0  0  0  0  0
   42.2390   67.5208   56.8645 C   0  0  0  0  0  0  0  0  0  0  0  0
   40.1625   72.4275   62.3217 C   0  0  0  0  0  0  0  0  0  0  0  0
   39.4667   72.5480   57.7120 C   0  0  0  0  0  0  0  0  0  0  0  0
   39.4371   69.2172   56.4248 C   0  0  0  0  0  0  0  0  0  0  0  0
   42.1293   73.1194   60.6575 H   0  0  0  0  0  0  0  0  0  0  0  0
   41.9977   70.6532   58.2982 H   0  0  0  0  0  0  0  0  0  0  0  0
   42.7052   69.2856   55.8937 H   0  0  0  0  0  0  0  0  0  0  0  0
   41.5978   66.9494   57.5201 H   0  0  0  0  0  0  0  0  0  0  0  0
   43.1277   67.0367   56.4805 H   0  0  0  0  0  0  0  0  0  0  0  0
   39.4013   72.1824   63.0913 H   0  0  0  0  0  0  0  0  0  0  0  0
   41.1422   72.0318   62.6625 H   0  0  0  0  0  0  0  0  0  0  0  0
   40.2224   73.5327   62.2324 H   0  0  0  0  0  0  0  0  0  0  0  0
   40.1924   73.3820   57.6949 H   0  0  0  0  0  0  0  0  0  0  0  0
   39.3336   72.1908   56.6677 H   0  0  0  0  0  0  0  0  0  0  0  0
   38.4962   72.9560   58.0686 H   0  0  0  0  0  0  0  0  0  0  0  0
   39.2991   68.1165   56.4080 H   0  0  0  0  0  0  0  0  0  0  0  0
   39.2914   69.5370   55.3821 H   0  0  0  0  0  0  0  0  0  0  0  0
   38.6432   69.6741   57.0519 H   0  0  0  0  0  0  0  0  0  0  0  0
  2  1  2  0
  3  1  1  0
  4  1  1  0
  6  5  1  0
  6  4  2  0
  7  3  1  0
  7  6  1  0
  8  7  1  0
  9  8  2  3
 10  9  1  0
 11 10  2  0
 12  4  1  0
  7 13  1  6
 14  9  1  0
  5 15  1  0
  8 16  1  0
 10 17  1  0
 11 18  1  0
 11 19  1  0
 12 20  1  0
 12 21  1  0
 12 22  1  0
 13 23  1  0
 13 24  1  0
 13 25  1  0
 14 26  1  0
 14 27  1  0
 14 28  1  0
M  END
