
     RDKit          3D

 28 28  0  0  0  0  0  0  0  0999 V2000
   56.8769   60.0439  120.1586 C   0  0  0  0  0  0  0  0  0  0  0  0
   56.0891   60.9764  119.8601 O   0  0  0  0  0  0  0  0  0  0  0  0
   58.0881   60.2124  121.4219 S   0  0  0  0  0  0  0  0  0  0  0  0
   56.8790   58.7594  119.5162 C   0  0  0  0  0  0  0  0  0  0  0  0
   57.9756   56.6361  119.5681 O   0  0  0  0  0  0  0  0  0  0  0  0
   57.7894   57.9360  120.0313 C   0  0  0  0  0  0  0  0  0  0  0  0
   58.6193   58.4665  121.1801 C   0  0  1  0  0  0  0  0  0  0  0  0
   60.1058   58.3739  120.8221 C   0  0  0  0  0  0  0  0  0  0  0  0
   61.1779   58.5153  121.6480 C   0  0  0  0  0  0  0  0  0  0  0  0
   62.5438   58.3681  121.0588 C   0  0  0  0  0  0  0  0  0  0  0  0
   63.6544   58.9112  121.5724 C   0  0  0  0  0  0  0  0  0  0  0  0
   55.9461   58.3989  118.3987 C   0  0  0  0  0  0  0  0  0  0  0  0
   58.2899   57.6303  122.4305 C   0  0  0  0  0  0  0  0  0  0  0  0
   61.0611   58.8633  123.1140 C   0  0  0  0  0  0  0  0  0  0  0  0
   57.4288   56.2366  118.8155 H   0  0  0  0  0  0  0  0  0  0  0  0
   60.3210   58.1513  119.7818 H   0  0  0  0  0  0  0  0  0  0  0  0
   62.6601   57.7661  120.1647 H   0  0  0  0  0  0  0  0  0  0  0  0
   63.6469   59.5398  122.4507 H   0  0  0  0  0  0  0  0  0  0  0  0
   64.6059   58.7403  121.0856 H   0  0  0  0  0  0  0  0  0  0  0  0
   54.8860   58.5113  118.7079 H   0  0  0  0  0  0  0  0  0  0  0  0
   56.1266   59.0646  117.5286 H   0  0  0  0  0  0  0  0  0  0  0  0
   56.1109   57.3430  118.0974 H   0  0  0  0  0  0  0  0  0  0  0  0
   58.4084   58.2120  123.3642 H   0  0  0  0  0  0  0  0  0  0  0  0
   57.2403   57.2669  122.3858 H   0  0  0  0  0  0  0  0  0  0  0  0
   58.9638   56.7487  122.4947 H   0  0  0  0  0  0  0  0  0  0  0  0
   61.3446   59.9255  123.2669 H   0  0  0  0  0  0  0  0  0  0  0  0
   61.7309   58.2142  123.7142 H   0  0  0  0  0  0  0  0  0  0  0  0
   60.0611   58.6974  123.5424 H   0  0  0  0  0  0  0  0  0  0  0  0
  2  1  2  0
  3  1  1  0
  4  1  1  0
  6  5  1  0
  6  4  2  0
  7  6  1  0
  7  3  1  0
  8  7  1  0
  9  8  2  3
 10  9  1  0
 11 10  2  0
 12  4  1  0
  7 13  1  1
 14  9  1  0
  5 15  1  0
  8 16  1  0
 10 17  1  0
 11 18  1  0
 11 19  1  0
 12 20  1  0
 12 21  1  0
 12 22  1  0
 13 23  1  0
 13 24  1  0
 13 25  1  0
 14 26  1  0
 14 27  1  0
 14 28  1  0
M  END
