
     RDKit          3D

 28 28  0  0  0  0  0  0  0  0999 V2000
   36.5928   39.1717   74.8995 C   0  0  0  0  0  0  0  0  0  0  0  0
   37.4254   39.4863   74.0153 O   0  0  0  0  0  0  0  0  0  0  0  0
   34.8577   39.2660   74.6281 S   0  0  0  0  0  0  0  0  0  0  0  0
   36.9614   38.7360   76.2146 C   0  0  0  0  0  0  0  0  0  0  0  0
   36.0113   38.1523   78.3250 O   0  0  0  0  0  0  0  0  0  0  0  0
   35.9020   38.5082   76.9840 C   0  0  0  0  0  0  0  0  0  0  0  0
   34.5454   38.6255   76.3246 C   0  0  1  0  0  0  0  0  0  0  0  0
   33.6653   39.5844   77.1137 C   0  0  0  0  0  0  0  0  0  0  0  0
   32.7683   40.4688   76.6112 C   0  0  0  0  0  0  0  0  0  0  0  0
   32.0092   41.3061   77.5809 C   0  0  0  0  0  0  0  0  0  0  0  0
   32.1571   42.6276   77.7081 C   0  0  0  0  0  0  0  0  0  0  0  0
   38.3854   38.5759   76.6580 C   0  0  0  0  0  0  0  0  0  0  0  0
   33.9223   37.2188   76.2726 C   0  0  0  0  0  0  0  0  0  0  0  0
   32.5275   40.6798   75.1307 C   0  0  0  0  0  0  0  0  0  0  0  0
   36.8999   38.0850   78.8057 H   0  0  0  0  0  0  0  0  0  0  0  0
   33.7679   39.5427   78.1936 H   0  0  0  0  0  0  0  0  0  0  0  0
   31.2793   40.8285   78.2250 H   0  0  0  0  0  0  0  0  0  0  0  0
   32.8656   43.1946   77.1213 H   0  0  0  0  0  0  0  0  0  0  0  0
   31.5602   43.1645   78.4340 H   0  0  0  0  0  0  0  0  0  0  0  0
   38.8867   39.5605   76.7643 H   0  0  0  0  0  0  0  0  0  0  0  0
   38.4158   38.0587   77.6399 H   0  0  0  0  0  0  0  0  0  0  0  0
   38.9495   37.9812   75.9089 H   0  0  0  0  0  0  0  0  0  0  0  0
   32.9213   37.2048   75.8048 H   0  0  0  0  0  0  0  0  0  0  0  0
   34.5764   36.5318   75.6932 H   0  0  0  0  0  0  0  0  0  0  0  0
   33.8121   36.8089   77.3000 H   0  0  0  0  0  0  0  0  0  0  0  0
   32.8146   41.7152   74.8529 H   0  0  0  0  0  0  0  0  0  0  0  0
   31.4877   40.5683   74.7947 H   0  0  0  0  0  0  0  0  0  0  0  0
   33.1504   39.9648   74.5535 H   0  0  0  0  0  0  0  0  0  0  0  0
  2  1  2  0
  3  1  1  0
  4  1  1  0
  6  4  2  0
  6  5  1  0
  7  6  1  0
  7  3  1  0
  8  7  1  0
  9  8  2  3
 10  9  1  0
 11 10  2  0
 12  4  1  0
  7 13  1  6
 14  9  1  0
  5 15  1  0
  8 16  1  0
 10 17  1  0
 11 18  1  0
 11 19  1  0
 12 20  1  0
 12 21  1  0
 12 22  1  0
 13 23  1  0
 13 24  1  0
 13 25  1  0
 14 26  1  0
 14 27  1  0
 14 28  1  0
M  END
