
     RDKit          3D

 14 14  0  0  0  0  0  0  0  0999 V2000
   -0.6778   -2.3812   20.4804 Cl  0  0  0  0  0  0  0  0  0  0  0  0
    1.6600   -0.8660   22.1696 Cl  0  0  0  0  0  0  0  0  0  0  0  0
    2.6805   -3.3866   18.5240 C   0  0  0  0  0  0  0  0  0  0  0  0
    3.6908   -2.7345   19.2493 C   0  0  0  0  0  0  0  0  0  0  0  0
    3.3597   -1.9628   20.3657 C   0  0  0  0  0  0  0  0  0  0  0  0
    2.0275   -1.8487   20.7655 C   0  0  0  0  0  0  0  0  0  0  0  0
    1.0175   -2.4995   20.0350 C   0  0  0  0  0  0  0  0  0  0  0  0
    1.3513   -3.2673   18.9222 C   0  0  0  0  0  0  0  0  0  0  0  0
    2.9555   -4.1548   17.3988 O   0  0  0  0  0  0  0  0  0  0  0  0
    5.0277   -2.8289   18.8828 O   0  0  0  0  0  0  0  0  0  0  0  0
    4.1395   -1.4576   20.9222 H   0  0  0  0  0  0  0  0  0  0  0  0
    0.5747   -3.7703   18.3588 H   0  0  0  0  0  0  0  0  0  0  0  0
    3.3032   -3.7957   16.5224 H   0  0  0  0  0  0  0  0  0  0  0  0
    5.5757   -2.0794   18.4880 H   0  0  0  0  0  0  0  0  0  0  0  0
  4  3  2  0
  5  4  1  0
  6  5  2  0
  6  2  1  0
  7  6  1  0
  7  1  1  0
  8  7  2  0
  8  3  1  0
  9  3  1  0
 10  4  1  0
  5 11  1  0
  8 12  1  0
  9 13  1  0
 10 14  1  0
M  END
