
     RDKit          3D

 38 40  0  0  0  0  0  0  0  0999 V2000
   31.5524   43.8940   68.5363 P   0  0  0  0  0  0  0  0  0  0  0  0
   31.9797   44.5789   69.8123 O   0  0  0  0  0  0  0  0  0  0  0  0
   30.1026   44.4914   67.9411 O   0  0  0  0  0  0  0  0  0  0  0  0
   32.6793   44.1153   67.3249 O   0  0  0  0  0  0  0  0  0  0  0  0
   30.9235   42.0238   70.1327 C   0  0  0  0  0  0  0  0  0  0  0  0
   31.3260   42.2483   68.8014 O   0  0  0  0  0  0  0  0  0  0  0  0
   30.9598   40.5096   70.4340 C   0  0  1  0  0  0  0  0  0  0  0  0
   29.8031   40.1178   71.1674 O   0  0  0  0  0  0  0  0  0  0  0  0
   31.0432   39.6444   69.1590 C   0  0  1  0  0  0  0  0  0  0  0  0
   31.9098   38.5452   69.3626 O   0  0  0  0  0  0  0  0  0  0  0  0
   29.6022   39.1889   68.9834 C   0  0  1  0  0  0  0  0  0  0  0  0
   29.5102   37.9407   68.3457 O   0  0  0  0  0  0  0  0  0  0  0  0
   29.1652   39.0858   70.4368 C   0  0  2  0  0  0  0  0  0  0  0  0
   25.3334   38.3494   73.8403 N   0  0  0  0  0  0  0  0  0  0  0  0
   26.6785   38.1278   73.9993 C   0  0  0  0  0  0  0  0  0  0  0  0
   27.1636   37.6685   75.2524 N   0  0  0  0  0  0  0  0  0  0  0  0
   27.5530   38.3461   72.9676 N   0  0  0  0  0  0  0  0  0  0  0  0
   27.0400   38.7718   71.7832 C   0  0  0  0  0  0  0  0  0  0  0  0
   25.7068   38.9672   71.5977 C   0  0  0  0  0  0  0  0  0  0  0  0
   24.8135   38.7569   72.6499 C   0  0  0  0  0  0  0  0  0  0  0  0
   23.5696   38.9182   72.5210 O   0  0  0  0  0  0  0  0  0  0  0  0
   25.4691   39.3678   70.3324 N   0  0  0  0  0  0  0  0  0  0  0  0
   26.7137   39.4137   69.7780 C   0  0  0  0  0  0  0  0  0  0  0  0
   27.7038   39.0586   70.6414 N   0  0  0  0  0  0  0  0  0  0  0  0
   29.4374   44.2889   68.6466 H   0  0  0  0  0  0  0  0  0  0  0  0
   33.5591   44.0811   67.7783 H   0  0  0  0  0  0  0  0  0  0  0  0
   31.6052   42.5289   70.8550 H   0  0  0  0  0  0  0  0  0  0  0  0
   29.8853   42.3924   70.2895 H   0  0  0  0  0  0  0  0  0  0  0  0
   31.8540   40.3281   71.0710 H   0  0  0  0  0  0  0  0  0  0  0  0
   31.3903   40.2196   68.2727 H   0  0  0  0  0  0  0  0  0  0  0  0
   31.7698   37.8708   68.6489 H   0  0  0  0  0  0  0  0  0  0  0  0
   29.0215   39.9619   68.4308 H   0  0  0  0  0  0  0  0  0  0  0  0
   28.5471   37.7946   68.1547 H   0  0  0  0  0  0  0  0  0  0  0  0
   29.5590   38.1236   70.8366 H   0  0  0  0  0  0  0  0  0  0  0  0
   24.6866   38.1816   74.6445 H   0  0  0  0  0  0  0  0  0  0  0  0
   28.1126   37.9504   75.5840 H   0  0  0  0  0  0  0  0  0  0  0  0
   26.5830   37.0460   75.8571 H   0  0  0  0  0  0  0  0  0  0  0  0
   26.8928   39.7347   68.7603 H   0  0  0  0  0  0  0  0  0  0  0  0
  2  1  2  0
  3  1  1  0
  4  1  1  0
  6  5  1  0
  6  1  1  0
  7  5  1  0
  8  7  1  0
  9  7  1  0
  9 10  1  0
 11  9  1  0
 11 12  1  0
 13 11  1  0
 13  8  1  0
 15 14  1  0
 16 15  1  0
 17 15  2  0
 18 17  1  0
 19 18  2  0
 20 14  1  0
 20 19  1  0
 21 20  2  0
 22 19  1  0
 23 22  2  0
 24 23  1  0
 24 18  1  0
 13 24  1  0
  3 25  1  0
  4 26  1  0
  5 27  1  0
  5 28  1  0
  7 29  1  1
  9 30  1  6
 10 31  1  0
 11 32  1  6
 12 33  1  0
 13 34  1  1
 14 35  1  0
 16 36  1  0
 16 37  1  0
 23 38  1  0
M  END
