
     RDKit          3D

 64 67  0  0  0  0  0  0  0  0999 V2000
   50.7126   27.0119   29.7535 P   0  0  1  0  0  0  0  0  0  0  0  0
   49.1301   29.2417   28.8082 P   0  0  1  0  0  0  0  0  0  0  0  0
   52.6792   28.4682   28.9433 C   0  0  0  0  0  0  0  0  0  0  0  0
   52.0807   27.2113   28.8066 O   0  0  0  0  0  0  0  0  0  0  0  0
   53.9006   28.4359   28.0167 C   0  0  1  0  0  0  0  0  0  0  0  0
   54.9493   27.7216   28.6662 O   0  0  0  0  0  0  0  0  0  0  0  0
   53.5624   27.7035   26.6859 C   0  0  1  0  0  0  0  0  0  0  0  0
   54.1263   28.3492   25.5669 O   0  0  0  0  0  0  0  0  0  0  0  0
   54.1998   26.3455   26.9107 C   0  0  1  0  0  0  0  0  0  0  0  0
   54.5326   25.6604   25.7283 O   0  0  0  0  0  0  0  0  0  0  0  0
   55.3993   26.7417   27.7599 C   0  0  2  0  0  0  0  0  0  0  0  0
   54.8614   22.6482   30.9320 N   0  0  0  0  0  0  0  0  0  0  0  0
   50.4460   25.5301   29.7382 O   0  0  0  0  0  0  0  0  0  0  0  0
   47.4583   29.3727   29.0263 O   0  0  0  0  0  0  0  0  0  0  0  0
   53.8997   23.5494   30.5513 C   0  0  0  0  0  0  0  0  0  0  0  0
   52.5776   23.4055   31.0535 N   0  0  0  0  0  0  0  0  0  0  0  0
   50.9476   27.4845   31.3456 O   0  0  0  0  0  0  0  0  0  0  0  0
   49.8423   30.2017   29.7381 O   0  0  0  0  0  0  0  0  0  0  0  0
   54.2151   24.5981   29.7296 N   0  0  0  0  0  0  0  0  0  0  0  0
   49.3169   27.5796   29.0243 O   0  0  0  0  0  0  0  0  0  0  0  0
   49.4956   29.5824   27.2126 O   0  0  0  0  0  0  0  0  0  0  0  0
   55.4994   24.7016   29.2955 C   0  0  0  0  0  0  0  0  0  0  0  0
   56.4761   23.8247   29.6690 C   0  0  0  0  0  0  0  0  0  0  0  0
   56.1586   22.7605   30.5198 C   0  0  0  0  0  0  0  0  0  0  0  0
   57.0226   21.9200   30.8999 O   0  0  0  0  0  0  0  0  0  0  0  0
   48.7467   32.9589   30.8989 O   0  0  0  0  0  0  0  0  0  0  0  0
   57.6520   24.1563   29.0926 N   0  0  0  0  0  0  0  0  0  0  0  0
   57.3316   25.2601   28.3630 C   0  0  0  0  0  0  0  0  0  0  0  0
   56.0212   25.6104   28.4546 N   0  0  0  0  0  0  0  0  0  0  0  0
   47.1721   29.2834   30.4255 C   0  0  2  0  0  0  0  0  0  0  0  0
   45.6831   28.9123   30.6822 C   0  0  1  0  0  0  0  0  0  0  0  0
   45.4903   28.5486   32.0338 O   0  0  0  0  0  0  0  0  0  0  0  0
   44.7737   30.0914   30.3172 C   0  0  1  0  0  0  0  0  0  0  0  0
   43.4409   29.8261   30.6853 O   0  0  0  0  0  0  0  0  0  0  0  0
   45.3011   31.3929   30.9566 C   0  0  2  0  0  0  0  0  0  0  0  0
   44.5210   32.4819   30.5381 O   0  0  0  0  0  0  0  0  0  0  0  0
   46.7872   31.5830   30.5743 C   0  0  2  0  0  0  0  0  0  0  0  0
   47.5444   30.4909   31.0598 O   0  0  0  0  0  0  0  0  0  0  0  0
   47.3694   32.8736   31.1627 C   0  0  0  0  0  0  0  0  0  0  0  0
   51.9991   29.2761   28.6064 H   0  0  0  0  0  0  0  0  0  0  0  0
   53.0089   28.6475   29.9905 H   0  0  0  0  0  0  0  0  0  0  0  0
   54.2290   29.4816   27.8272 H   0  0  0  0  0  0  0  0  0  0  0  0
   52.4685   27.5991   26.5108 H   0  0  0  0  0  0  0  0  0  0  0  0
   55.0461   28.6479   25.7871 H   0  0  0  0  0  0  0  0  0  0  0  0
   53.5085   25.7010   27.4904 H   0  0  0  0  0  0  0  0  0  0  0  0
   55.2864   26.1338   25.2899 H   0  0  0  0  0  0  0  0  0  0  0  0
   56.1758   27.2140   27.1146 H   0  0  0  0  0  0  0  0  0  0  0  0
   54.5993   21.8614   31.5686 H   0  0  0  0  0  0  0  0  0  0  0  0
   52.3982   22.6470   31.7436 H   0  0  0  0  0  0  0  0  0  0  0  0
   51.7683   23.7039   30.4653 H   0  0  0  0  0  0  0  0  0  0  0  0
   50.0926   27.8948   31.6257 H   0  0  0  0  0  0  0  0  0  0  0  0
   50.0010   30.4335   27.2445 H   0  0  0  0  0  0  0  0  0  0  0  0
   48.8382   33.2166   29.9444 H   0  0  0  0  0  0  0  0  0  0  0  0
   58.0541   25.7939   27.7589 H   0  0  0  0  0  0  0  0  0  0  0  0
   47.7552   28.5017   30.9680 H   0  0  0  0  0  0  0  0  0  0  0  0
   45.4298   28.0491   30.0213 H   0  0  0  0  0  0  0  0  0  0  0  0
   45.4762   29.3878   32.5642 H   0  0  0  0  0  0  0  0  0  0  0  0
   44.7967   30.2065   29.2104 H   0  0  0  0  0  0  0  0  0  0  0  0
   43.3687   29.9077   31.6719 H   0  0  0  0  0  0  0  0  0  0  0  0
   45.2263   31.3179   32.0643 H   0  0  0  0  0  0  0  0  0  0  0  0
   44.8046   33.2781   31.0598 H   0  0  0  0  0  0  0  0  0  0  0  0
   46.8759   31.6720   29.4665 H   0  0  0  0  0  0  0  0  0  0  0  0
   47.2174   32.8815   32.2634 H   0  0  0  0  0  0  0  0  0  0  0  0
   46.8501   33.7652   30.7434 H   0  0  0  0  0  0  0  0  0  0  0  0
  1  4  1  6
  4  3  1  0
  5  3  1  0
  6  5  1  0
  7  5  1  0
  7  8  1  0
  9  7  1  0
  9 10  1  0
 11  9  1  0
 11  6  1  0
 13  1  2  0
  2 14  1  6
 15 12  1  0
 16 15  1  0
 17  1  1  0
 18  2  2  0
 19 15  2  0
 20  1  1  0
 20  2  1  0
 21  2  1  0
 22 19  1  0
 23 22  2  0
 24 12  1  0
 24 23  1  0
 25 24  2  0
 27 23  1  0
 28 27  2  0
 29 28  1  0
 29 22  1  0
 11 29  1  0
 30 14  1  0
 31 30  1  0
 31 32  1  0
 33 31  1  0
 33 34  1  0
 35 33  1  0
 35 36  1  0
 37 35  1  0
 38 37  1  0
 38 30  1  0
 37 39  1  0
 39 26  1  0
  3 40  1  0
  3 41  1  0
  5 42  1  6
  7 43  1  6
  8 44  1  0
  9 45  1  1
 10 46  1  0
 11 47  1  6
 12 48  1  0
 16 49  1  0
 16 50  1  0
 17 51  1  0
 21 52  1  0
 26 53  1  0
 28 54  1  0
 30 55  1  1
 31 56  1  6
 32 57  1  0
 33 58  1  6
 34 59  1  0
 35 60  1  1
 36 61  1  0
 37 62  1  6
 39 63  1  0
 39 64  1  0
M  END
