
     RDKit          3D

 34 35  0  0  0  0  0  0  0  0999 V2000
   10.0300   41.0718   27.9165 P   0  0  0  0  0  0  0  0  0  0  0  0
   10.9229   42.2650   27.6641 O   0  0  0  0  0  0  0  0  0  0  0  0
   10.0255   40.0746   26.5662 O   0  0  0  0  0  0  0  0  0  0  0  0
   10.5644   40.2177   29.2604 O   0  0  0  0  0  0  0  0  0  0  0  0
    7.8273   41.0908   29.2463 C   0  0  0  0  0  0  0  0  0  0  0  0
    8.4631   41.6506   28.1313 O   0  0  0  0  0  0  0  0  0  0  0  0
    7.8408   42.1565   30.3474 C   0  0  1  0  0  0  0  0  0  0  0  0
    9.1520   42.6707   30.5277 O   0  0  0  0  0  0  0  0  0  0  0  0
    6.9400   43.3432   30.0150 C   0  0  1  0  0  0  0  0  0  0  0  0
    5.5763   43.1178   30.2816 O   0  0  0  0  0  0  0  0  0  0  0  0
    7.5679   44.4405   30.8448 C   0  0  1  0  0  0  0  0  0  0  0  0
    7.1219   44.4234   32.1855 O   0  0  0  0  0  0  0  0  0  0  0  0
    9.0575   44.0716   30.7588 C   0  0  2  0  0  0  0  0  0  0  0  0
    9.7434   44.8414   29.6894 N   0  0  0  0  0  0  0  0  0  0  0  0
    9.7832   46.2133   29.7439 C   0  0  0  0  0  0  0  0  0  0  0  0
    9.2662   46.8333   30.7142 O   0  0  0  0  0  0  0  0  0  0  0  0
   10.3899   46.9209   28.7494 N   0  0  0  0  0  0  0  0  0  0  0  0
   10.9644   46.3018   27.6845 C   0  0  0  0  0  0  0  0  0  0  0  0
   11.5023   46.9841   26.7718 O   0  0  0  0  0  0  0  0  0  0  0  0
   10.9611   44.9150   27.6148 C   0  0  0  0  0  0  0  0  0  0  0  0
   10.3660   44.2042   28.6467 C   0  0  0  0  0  0  0  0  0  0  0  0
   10.7537   39.4235   26.7301 H   0  0  0  0  0  0  0  0  0  0  0  0
   10.2792   39.2827   29.1015 H   0  0  0  0  0  0  0  0  0  0  0  0
    6.7721   40.8108   29.0239 H   0  0  0  0  0  0  0  0  0  0  0  0
    8.3908   40.1968   29.5930 H   0  0  0  0  0  0  0  0  0  0  0  0
    7.5180   41.6715   31.2955 H   0  0  0  0  0  0  0  0  0  0  0  0
    7.0431   43.6174   28.9407 H   0  0  0  0  0  0  0  0  0  0  0  0
    5.5040   42.3771   30.9375 H   0  0  0  0  0  0  0  0  0  0  0  0
    7.3473   45.4369   30.4044 H   0  0  0  0  0  0  0  0  0  0  0  0
    7.4229   43.5833   32.6198 H   0  0  0  0  0  0  0  0  0  0  0  0
    9.5591   44.2907   31.7281 H   0  0  0  0  0  0  0  0  0  0  0  0
   10.4072   47.9654   28.8025 H   0  0  0  0  0  0  0  0  0  0  0  0
   11.4476   44.3963   26.7976 H   0  0  0  0  0  0  0  0  0  0  0  0
   10.4992   43.1431   28.6342 H   0  0  0  0  0  0  0  0  0  0  0  0
  2  1  2  0
  3  1  1  0
  4  1  1  0
  6  1  1  0
  6  5  1  0
  7  5  1  0
  8  7  1  0
  9  7  1  0
  9 10  1  0
 11  9  1  0
 11 12  1  0
 13  8  1  0
 13 11  1  0
 13 14  1  0
 15 14  1  0
 16 15  2  0
 17 15  1  0
 18 17  1  0
 19 18  2  0
 20 18  1  0
 21 20  2  0
 21 14  1  0
  3 22  1  0
  4 23  1  0
  5 24  1  0
  5 25  1  0
  7 26  1  1
  9 27  1  6
 10 28  1  0
 11 29  1  6
 12 30  1  0
 13 31  1  1
 17 32  1  0
 20 33  1  0
 21 34  1  0
M  END
