
     RDKit          3D

 62 66  0  0  0  0  0  0  0  0999 V2000
   31.2809   -1.0382   28.7423 C   0  0  2  0  0  0  0  0  0  0  0  0
   31.3759   -2.4702   28.2017 C   0  0  1  0  0  0  0  0  0  0  0  0
   30.1822   -3.1859   28.4459 O   0  0  0  0  0  0  0  0  0  0  0  0
   28.9483   -2.7563   27.9904 C   0  0  0  0  0  0  0  0  0  0  0  0
   28.0194   -3.7189   27.6051 C   0  0  0  0  0  0  0  0  0  0  0  0
   26.7854   -3.3326   27.0905 C   0  0  0  0  0  0  0  0  0  0  0  0
   26.4428   -1.9810   27.0438 C   0  0  0  0  0  0  0  0  0  0  0  0
   25.1825   -1.6151   26.5943 O   0  0  0  0  0  0  0  0  0  0  0  0
   27.3679   -1.0114   27.4399 C   0  0  0  0  0  0  0  0  0  0  0  0
   28.6320   -1.3944   27.8881 C   0  0  0  0  0  0  0  0  0  0  0  0
   29.8025   -0.0992   28.2210 S   0  0  0  0  0  0  0  0  0  0  0  0
   32.5795   -0.2944   28.5067 C   0  0  0  0  0  0  0  0  0  0  0  0
   33.3376    0.2898   29.5429 C   0  0  0  0  0  0  0  0  0  0  0  0
   34.5025    1.0065   29.2415 C   0  0  0  0  0  0  0  0  0  0  0  0
   34.9009    1.1725   27.9098 C   0  0  0  0  0  0  0  0  0  0  0  0
   36.0493    1.8973   27.6158 O   0  0  0  0  0  0  0  0  0  0  0  0
   34.1365    0.6208   26.8792 C   0  0  0  0  0  0  0  0  0  0  0  0
   32.9881   -0.1069   27.1768 C   0  0  0  0  0  0  0  0  0  0  0  0
   31.7965   -2.6332   26.7467 C   0  0  0  0  0  0  0  0  0  0  0  0
   31.7353   -3.9227   26.1988 C   0  0  0  0  0  0  0  0  0  0  0  0
   32.0453   -4.1558   24.8612 C   0  0  0  0  0  0  0  0  0  0  0  0
   32.4277   -3.0943   24.0284 C   0  0  0  0  0  0  0  0  0  0  0  0
   32.4531   -1.7950   24.5536 C   0  0  0  0  0  0  0  0  0  0  0  0
   32.1452   -1.5602   25.9003 C   0  0  0  0  0  0  0  0  0  0  0  0
   32.7674   -3.2628   22.6776 O   0  0  0  0  0  0  0  0  0  0  0  0
   31.9037   -3.4947   21.5580 C   0  0  0  0  0  0  0  0  0  0  0  0
   32.2950   -2.6417   20.3276 C   0  0  0  0  0  0  0  0  0  0  0  0
   33.6919   -2.7596   19.8213 N   0  0  0  0  0  0  0  0  0  0  0  0
   34.7664   -2.6716   20.8246 C   0  0  0  0  0  0  0  0  0  0  0  0
   36.1099   -2.3473   20.1540 C   0  0  0  0  0  0  0  0  0  0  0  0
   36.4357   -3.3594   19.0507 C   0  0  0  0  0  0  0  0  0  0  0  0
   35.2644   -3.4667   18.0651 C   0  0  0  0  0  0  0  0  0  0  0  0
   33.9515   -3.7964   18.8063 C   0  0  0  0  0  0  0  0  0  0  0  0
   31.1472   -1.1313   29.8438 H   0  0  0  0  0  0  0  0  0  0  0  0
   32.1465   -2.9633   28.8358 H   0  0  0  0  0  0  0  0  0  0  0  0
   28.2679   -4.7707   27.6709 H   0  0  0  0  0  0  0  0  0  0  0  0
   26.0747   -4.0853   26.7735 H   0  0  0  0  0  0  0  0  0  0  0  0
   24.8985   -0.6435   26.5442 H   0  0  0  0  0  0  0  0  0  0  0  0
   27.1102    0.0384   27.3701 H   0  0  0  0  0  0  0  0  0  0  0  0
   33.0302    0.2003   30.5761 H   0  0  0  0  0  0  0  0  0  0  0  0
   35.0855    1.4459   30.0409 H   0  0  0  0  0  0  0  0  0  0  0  0
   36.5075    2.4730   28.3128 H   0  0  0  0  0  0  0  0  0  0  0  0
   34.4335    0.7534   25.8466 H   0  0  0  0  0  0  0  0  0  0  0  0
   32.4093   -0.5216   26.3603 H   0  0  0  0  0  0  0  0  0  0  0  0
   31.4343   -4.7674   26.8067 H   0  0  0  0  0  0  0  0  0  0  0  0
   31.9603   -5.1664   24.4942 H   0  0  0  0  0  0  0  0  0  0  0  0
   32.7249   -0.9628   23.9165 H   0  0  0  0  0  0  0  0  0  0  0  0
   32.1775   -0.5455   26.2587 H   0  0  0  0  0  0  0  0  0  0  0  0
   31.9929   -4.5644   21.2752 H   0  0  0  0  0  0  0  0  0  0  0  0
   30.8381   -3.3234   21.7976 H   0  0  0  0  0  0  0  0  0  0  0  0
   32.1217   -1.5778   20.5969 H   0  0  0  0  0  0  0  0  0  0  0  0
   31.5776   -2.8612   19.5073 H   0  0  0  0  0  0  0  0  0  0  0  0
   34.8623   -3.6344   21.3742 H   0  0  0  0  0  0  0  0  0  0  0  0
   34.5455   -1.8576   21.5493 H   0  0  0  0  0  0  0  0  0  0  0  0
   36.0642   -1.3259   19.7164 H   0  0  0  0  0  0  0  0  0  0  0  0
   36.9178   -2.3593   20.9171 H   0  0  0  0  0  0  0  0  0  0  0  0
   37.3506   -3.0374   18.5083 H   0  0  0  0  0  0  0  0  0  0  0  0
   36.6334   -4.3553   19.5047 H   0  0  0  0  0  0  0  0  0  0  0  0
   35.4796   -4.2659   17.3237 H   0  0  0  0  0  0  0  0  0  0  0  0
   35.1490   -2.5067   17.5155 H   0  0  0  0  0  0  0  0  0  0  0  0
   33.1279   -3.8199   18.0603 H   0  0  0  0  0  0  0  0  0  0  0  0
   34.0168   -4.7982   19.2862 H   0  0  0  0  0  0  0  0  0  0  0  0
  2  1  1  0
  3  2  1  0
  4  3  1  0
  5  4  2  0
  6  5  1  0
  7  6  2  0
  8  7  1  0
  9  7  1  0
 10  9  2  0
 10  4  1  0
 11 10  1  0
 11  1  1  0
  1 12  1  0
 13 12  2  0
 14 13  1  0
 15 14  2  0
 16 15  1  0
 17 15  1  0
 18 12  1  0
 18 17  2  0
  2 19  1  0
 20 19  2  0
 21 20  1  0
 22 21  2  0
 23 22  1  0
 24 23  2  0
 24 19  1  0
 25 22  1  0
 26 25  1  0
 27 26  1  0
 28 27  1  0
 29 28  1  0
 30 29  1  0
 31 30  1  0
 32 31  1  0
 33 32  1  0
 33 28  1  0
  1 34  1  1
  2 35  1  1
  5 36  1  0
  6 37  1  0
  8 38  1  0
  9 39  1  0
 13 40  1  0
 14 41  1  0
 16 42  1  0
 17 43  1  0
 18 44  1  0
 20 45  1  0
 21 46  1  0
 23 47  1  0
 24 48  1  0
 26 49  1  0
 26 50  1  0
 27 51  1  0
 27 52  1  0
 29 53  1  0
 29 54  1  0
 30 55  1  0
 30 56  1  0
 31 57  1  0
 31 58  1  0
 32 59  1  0
 32 60  1  0
 33 61  1  0
 33 62  1  0
M  END
