
     RDKit          3D

 61 65  0  0  0  0  0  0  0  0999 V2000
   52.2116   21.4583   44.3935 C   0  0  2  0  0  0  0  0  0  0  0  0
   51.6096   21.6167   43.0319 C   0  0  0  0  0  0  0  0  0  0  0  0
   50.3782   21.8410   42.8828 O   0  0  0  0  0  0  0  0  0  0  0  0
   52.3139   19.9465   44.6654 C   0  0  0  0  0  0  0  0  0  0  0  0
   52.9038   19.6116   46.0012 C   0  0  0  0  0  0  0  0  0  0  0  0
   53.2505   18.3315   46.4182 C   0  0  0  0  0  0  0  0  0  0  0  0
   53.2837   20.4711   47.0253 C   0  0  0  0  0  0  0  0  0  0  0  0
   53.8282   19.6792   48.0062 C   0  0  0  0  0  0  0  0  0  0  0  0
   53.2032   21.8608   47.1724 C   0  0  0  0  0  0  0  0  0  0  0  0
   53.8127   18.3818   47.6446 N   0  0  0  0  0  0  0  0  0  0  0  0
   54.3215   20.2220   49.1967 C   0  0  0  0  0  0  0  0  0  0  0  0
   53.6869   22.4331   48.3666 C   0  0  0  0  0  0  0  0  0  0  0  0
   54.2447   21.6169   49.3743 C   0  0  0  0  0  0  0  0  0  0  0  0
   51.4041   22.1442   45.4083 N   0  0  0  0  0  0  0  0  0  0  0  0
   51.7676   20.8957   40.4299 P   0  0  2  0  0  0  0  0  0  0  0  0
   51.9396   19.2308   40.1960 O   0  0  0  0  0  0  0  0  0  0  0  0
   50.3095   21.2960   40.3610 O   0  0  0  0  0  0  0  0  0  0  0  0
   54.0298   21.4219   39.3328 C   0  0  0  0  0  0  0  0  0  0  0  0
   52.6610   21.7737   39.2863 O   0  0  0  0  0  0  0  0  0  0  0  0
   54.8895   22.6826   39.1478 C   0  0  1  0  0  0  0  0  0  0  0  0
   54.4388   23.4035   38.0103 O   0  0  0  0  0  0  0  0  0  0  0  0
   54.8361   23.6052   40.3752 C   0  0  1  0  0  0  0  0  0  0  0  0
   56.1050   24.1790   40.5748 O   0  0  0  0  0  0  0  0  0  0  0  0
   53.8440   24.6525   39.9222 C   0  0  1  0  0  0  0  0  0  0  0  0
   54.0008   25.8929   40.5647 O   0  0  0  0  0  0  0  0  0  0  0  0
   54.1315   24.7152   38.4258 C   0  0  2  0  0  0  0  0  0  0  0  0
   52.4131   28.4708   35.3319 N   0  0  0  0  0  0  0  0  0  0  0  0
   53.6550   28.3169   35.8879 C   0  0  0  0  0  0  0  0  0  0  0  0
   53.9392   27.2421   36.6825 N   0  0  0  0  0  0  0  0  0  0  0  0
   52.9467   26.3468   36.9080 C   0  0  0  0  0  0  0  0  0  0  0  0
   51.7111   26.4741   36.3711 C   0  0  0  0  0  0  0  0  0  0  0  0
   51.4243   27.5595   35.5491 C   0  0  0  0  0  0  0  0  0  0  0  0
   50.1483   27.7333   34.9499 N   0  0  0  0  0  0  0  0  0  0  0  0
   50.9172   25.4573   36.7642 N   0  0  0  0  0  0  0  0  0  0  0  0
   51.7395   24.7210   37.5590 C   0  0  0  0  0  0  0  0  0  0  0  0
   52.9912   25.2423   37.6687 N   0  0  0  0  0  0  0  0  0  0  0  0
   52.4120   21.3503   41.9414 O   0  0  0  0  0  0  0  0  0  0  0  0
   53.2330   21.8987   44.3906 H   0  0  0  0  0  0  0  0  0  0  0  0
   52.9481   19.4725   43.8837 H   0  0  0  0  0  0  0  0  0  0  0  0
   51.3043   19.4835   44.5893 H   0  0  0  0  0  0  0  0  0  0  0  0
   53.1085   17.4188   45.8541 H   0  0  0  0  0  0  0  0  0  0  0  0
   52.7778   22.4810   46.3939 H   0  0  0  0  0  0  0  0  0  0  0  0
   54.1690   17.5716   48.1987 H   0  0  0  0  0  0  0  0  0  0  0  0
   54.7499   19.5884   49.9625 H   0  0  0  0  0  0  0  0  0  0  0  0
   53.6334   23.5045   48.5095 H   0  0  0  0  0  0  0  0  0  0  0  0
   54.6164   22.0650   50.2866 H   0  0  0  0  0  0  0  0  0  0  0  0
   50.5204   22.4862   44.9646 H   0  0  0  0  0  0  0  0  0  0  0  0
   51.1443   21.4751   46.1698 H   0  0  0  0  0  0  0  0  0  0  0  0
   52.6176   19.1409   39.4797 H   0  0  0  0  0  0  0  0  0  0  0  0
   54.3501   20.9164   40.2741 H   0  0  0  0  0  0  0  0  0  0  0  0
   54.2382   20.7220   38.4954 H   0  0  0  0  0  0  0  0  0  0  0  0
   55.9366   22.3517   38.9673 H   0  0  0  0  0  0  0  0  0  0  0  0
   54.4823   23.0994   41.3041 H   0  0  0  0  0  0  0  0  0  0  0  0
   55.9661   25.1611   40.6165 H   0  0  0  0  0  0  0  0  0  0  0  0
   52.8115   24.2839   40.1083 H   0  0  0  0  0  0  0  0  0  0  0  0
   54.3773   25.7419   41.4703 H   0  0  0  0  0  0  0  0  0  0  0  0
   55.0279   25.3477   38.2320 H   0  0  0  0  0  0  0  0  0  0  0  0
   54.4219   29.0538   35.6929 H   0  0  0  0  0  0  0  0  0  0  0  0
   49.7588   26.9972   34.3202 H   0  0  0  0  0  0  0  0  0  0  0  0
   49.5832   28.5932   35.1286 H   0  0  0  0  0  0  0  0  0  0  0  0
   51.4232   23.8104   38.0492 H   0  0  0  0  0  0  0  0  0  0  0  0
  2  1  1  0
  3  2  2  0
  4  1  1  0
  5  4  1  0
  6  5  2  0
  7  5  1  0
  8  7  2  0
  9  7  1  0
 10  6  1  0
 10  8  1  0
 11  8  1  0
 12  9  2  0
 13 11  2  0
 13 12  1  0
  1 14  1  0
 15 16  1  6
 17 15  2  0
 19 18  1  0
 19 15  1  0
 20 18  1  0
 21 20  1  0
 22 20  1  0
 22 23  1  0
 24 22  1  0
 24 25  1  0
 26 24  1  0
 26 21  1  0
 28 27  2  0
 29 28  1  0
 30 29  2  0
 31 30  1  0
 32 31  2  0
 32 27  1  0
 33 32  1  0
 34 31  1  0
 35 34  2  0
 36 35  1  0
 36 30  1  0
 26 36  1  0
 37 15  1  0
 37  2  1  0
  1 38  1  6
  4 39  1  0
  4 40  1  0
  6 41  1  0
  9 42  1  0
 10 43  1  0
 11 44  1  0
 12 45  1  0
 13 46  1  0
 14 47  1  0
 14 48  1  0
 16 49  1  0
 18 50  1  0
 18 51  1  0
 20 52  1  6
 22 53  1  1
 23 54  1  0
 24 55  1  6
 25 56  1  0
 26 57  1  1
 28 58  1  0
 33 59  1  0
 33 60  1  0
 35 61  1  0
M  END
