
     RDKit          3D

 27 27  0  0  0  0  0  0  0  0999 V2000
   -1.5016   31.6125   19.3072 P   0  0  0  0  0  0  0  0  0  0  0  0
    3.0918   30.6692   18.2048 C   0  0  0  0  0  0  0  0  0  0  0  0
   -0.0641   30.8593   18.7790 O   0  0  0  0  0  0  0  0  0  0  0  0
    2.1893   31.4958   18.7804 C   0  0  0  0  0  0  0  0  0  0  0  0
    0.3618   29.1831   21.0623 O   0  0  0  0  0  0  0  0  0  0  0  0
    1.0479   31.0291   19.6467 C   0  0  2  0  0  0  0  0  0  0  0  0
    2.1219   27.4008   19.7674 O   0  0  0  0  0  0  0  0  0  0  0  0
    1.4359   29.6893   20.3150 C   0  0  2  0  0  0  0  0  0  0  0  0
    3.8285   32.3160   16.6635 O   0  0  0  0  0  0  0  0  0  0  0  0
    1.9248   28.6871   19.2379 C   0  0  1  0  0  0  0  0  0  0  0  0
    5.2448   30.5519   16.9959 O   0  0  0  0  0  0  0  0  0  0  0  0
    3.2141   29.2124   18.5959 C   0  0  0  0  0  0  0  0  0  0  0  0
   -2.4605   30.6166   19.9188 O   0  0  0  0  0  0  0  0  0  0  0  0
    4.0643   31.2269   17.2515 C   0  0  0  0  0  0  0  0  0  0  0  0
   -2.2346   32.4151   18.0279 O   0  0  0  0  0  0  0  0  0  0  0  0
   -1.0528   32.7587   20.4594 O   0  0  0  0  0  0  0  0  0  0  0  0
    2.1762   32.5460   18.5124 H   0  0  0  0  0  0  0  0  0  0  0  0
   -0.2965   28.8003   20.4257 H   0  0  0  0  0  0  0  0  0  0  0  0
    0.8724   31.7928   20.4388 H   0  0  0  0  0  0  0  0  0  0  0  0
    1.3010   26.8729   19.5841 H   0  0  0  0  0  0  0  0  0  0  0  0
    2.2692   29.8828   21.0276 H   0  0  0  0  0  0  0  0  0  0  0  0
    1.1514   28.6004   18.4427 H   0  0  0  0  0  0  0  0  0  0  0  0
    5.3028   29.8691   16.2497 H   0  0  0  0  0  0  0  0  0  0  0  0
    3.4446   28.5989   17.6978 H   0  0  0  0  0  0  0  0  0  0  0  0
    4.0604   29.1127   19.3100 H   0  0  0  0  0  0  0  0  0  0  0  0
   -2.4664   33.3083   18.3873 H   0  0  0  0  0  0  0  0  0  0  0  0
   -1.8021   33.4061   20.4780 H   0  0  0  0  0  0  0  0  0  0  0  0
  3  1  1  0
  4  2  2  0
  6  4  1  0
  6  3  1  0
  8  6  1  0
  8  5  1  0
 10  8  1  0
 10  7  1  0
 12 10  1  0
 12  2  1  0
 13  1  2  0
 14  2  1  0
 14  9  2  0
 14 11  1  0
 15  1  1  0
 16  1  1  0
  4 17  1  0
  5 18  1  0
  6 19  1  1
  7 20  1  0
  8 21  1  1
 10 22  1  6
 11 23  1  0
 12 24  1  0
 12 25  1  0
 15 26  1  0
 16 27  1  0
M  END
