
     RDKit          3D

 27 27  0  0  0  0  0  0  0  0999 V2000
   -1.6914   31.1865   18.4345 P   0  0  0  0  0  0  0  0  0  0  0  0
    2.9817   30.1668   17.8630 C   0  0  0  0  0  0  0  0  0  0  0  0
   -0.2163   30.4543   17.9862 O   0  0  0  0  0  0  0  0  0  0  0  0
    2.0296   30.9257   18.4517 C   0  0  0  0  0  0  0  0  0  0  0  0
   -0.2214   28.3447   19.9239 O   0  0  0  0  0  0  0  0  0  0  0  0
    0.7483   30.3785   19.0264 C   0  0  2  0  0  0  0  0  0  0  0  0
    1.6570   26.7312   18.5748 O   0  0  0  0  0  0  0  0  0  0  0  0
    0.9759   28.9121   19.4622 C   0  0  2  0  0  0  0  0  0  0  0  0
    4.0142   32.0265   16.8113 O   0  0  0  0  0  0  0  0  0  0  0  0
    1.5937   28.1057   18.2911 C   0  0  1  0  0  0  0  0  0  0  0  0
    5.2943   30.1403   16.9901 O   0  0  0  0  0  0  0  0  0  0  0  0
    2.9871   28.6571   17.9673 C   0  0  0  0  0  0  0  0  0  0  0  0
   -1.7628   32.6245   17.9735 O   0  0  0  0  0  0  0  0  0  0  0  0
    4.1134   30.8311   17.1971 C   0  0  0  0  0  0  0  0  0  0  0  0
   -1.8955   31.0986   20.0984 O   0  0  0  0  0  0  0  0  0  0  0  0
   -2.9187   30.2890   17.7057 O   0  0  0  0  0  0  0  0  0  0  0  0
    2.0976   32.0063   18.4011 H   0  0  0  0  0  0  0  0  0  0  0  0
   -0.6683   27.9102   19.1515 H   0  0  0  0  0  0  0  0  0  0  0  0
    0.4766   30.9853   19.9205 H   0  0  0  0  0  0  0  0  0  0  0  0
    2.1752   26.6229   19.4150 H   0  0  0  0  0  0  0  0  0  0  0  0
    1.6913   28.9082   20.3153 H   0  0  0  0  0  0  0  0  0  0  0  0
    0.9545   28.2261   17.3884 H   0  0  0  0  0  0  0  0  0  0  0  0
    6.1834   30.6251   16.9645 H   0  0  0  0  0  0  0  0  0  0  0  0
    3.3356   28.2141   17.0090 H   0  0  0  0  0  0  0  0  0  0  0  0
    3.7045   28.3650   18.7650 H   0  0  0  0  0  0  0  0  0  0  0  0
   -2.8494   31.3178   20.2496 H   0  0  0  0  0  0  0  0  0  0  0  0
   -3.6615   30.9319   17.5788 H   0  0  0  0  0  0  0  0  0  0  0  0
  3  1  1  0
  4  2  2  0
  6  4  1  0
  6  3  1  0
  8  6  1  0
  8  5  1  0
 10  8  1  0
 10  7  1  0
 12 10  1  0
 12  2  1  0
 13  1  2  0
 14  2  1  0
 14  9  2  0
 14 11  1  0
 15  1  1  0
 16  1  1  0
  4 17  1  0
  5 18  1  0
  6 19  1  1
  7 20  1  0
  8 21  1  1
 10 22  1  6
 11 23  1  0
 12 24  1  0
 12 25  1  0
 15 26  1  0
 16 27  1  0
M  END
