
     RDKit          3D

 31 31  0  0  0  0  0  0  0  0999 V2000
    8.2129  -10.3096    7.1883 C   0  0  0  0  0  0  0  0  0  0  0  0
    7.5038  -11.0363    6.0990 C   0  0  0  0  0  0  0  0  0  0  0  0
    6.3150  -11.4128    6.2653 O   0  0  0  0  0  0  0  0  0  0  0  0
    3.1034  -14.5489    3.1006 O   0  0  0  0  0  0  0  0  0  0  0  0
    4.8528  -12.9365    3.1558 C   0  0  0  0  0  0  0  0  0  0  0  0
    5.5683  -13.5791    4.0987 C   0  0  0  0  0  0  0  0  0  0  0  0
    7.0742  -13.4580    4.1819 C   0  0  1  0  0  0  0  0  0  0  0  0
    7.6737  -14.4992    3.3436 N   0  0  0  0  0  0  0  0  0  0  0  0
    7.6041  -12.0456    3.7547 C   0  0  2  0  0  0  0  0  0  0  0  0
    8.1990  -11.3314    4.8870 N   0  0  0  0  0  0  0  0  0  0  0  0
    4.6659  -11.1517    1.5456 O   0  0  0  0  0  0  0  0  0  0  0  0
    6.5622  -11.1446    3.0399 C   0  0  1  0  0  0  0  0  0  0  0  0
    7.2164  -10.1898    2.2385 O   0  0  0  0  0  0  0  0  0  0  0  0
    5.5753  -11.9926    2.2114 C   0  0  1  0  0  0  0  0  0  0  0  0
    3.3627  -13.1727    3.0618 C   0  0  0  0  0  0  0  0  0  0  0  0
    9.0946   -9.7824    6.7681 H   0  0  0  0  0  0  0  0  0  0  0  0
    8.5543  -11.0184    7.9724 H   0  0  0  0  0  0  0  0  0  0  0  0
    7.5289   -9.5678    7.6511 H   0  0  0  0  0  0  0  0  0  0  0  0
    2.6703  -14.7725    2.2360 H   0  0  0  0  0  0  0  0  0  0  0  0
    5.0750  -14.2578    4.7895 H   0  0  0  0  0  0  0  0  0  0  0  0
    7.3661  -13.6640    5.2368 H   0  0  0  0  0  0  0  0  0  0  0  0
    7.1584  -14.5335    2.4332 H   0  0  0  0  0  0  0  0  0  0  0  0
    7.5033  -15.4258    3.7988 H   0  0  0  0  0  0  0  0  0  0  0  0
    8.4248  -12.2146    3.0204 H   0  0  0  0  0  0  0  0  0  0  0  0
    9.2016  -11.0447    4.8110 H   0  0  0  0  0  0  0  0  0  0  0  0
    5.1692  -10.3416    1.2700 H   0  0  0  0  0  0  0  0  0  0  0  0
    5.9694  -10.5889    3.7992 H   0  0  0  0  0  0  0  0  0  0  0  0
    8.1834  -10.2149    2.4634 H   0  0  0  0  0  0  0  0  0  0  0  0
    6.1373  -12.6104    1.4711 H   0  0  0  0  0  0  0  0  0  0  0  0
    2.8287  -12.6688    3.8992 H   0  0  0  0  0  0  0  0  0  0  0  0
    2.9682  -12.7385    2.1172 H   0  0  0  0  0  0  0  0  0  0  0  0
  2  1  1  0
  3  2  2  0
  6  5  2  0
  7  6  1  0
  7  8  1  0
  9  7  1  0
  9 10  1  0
 10  2  1  0
 12  9  1  0
 12 13  1  0
 14  5  1  0
 14 12  1  0
 14 11  1  0
 15  5  1  0
 15  4  1  0
  1 16  1  0
  1 17  1  0
  1 18  1  0
  4 19  1  0
  6 20  1  0
  7 21  1  1
  8 22  1  0
  8 23  1  0
  9 24  1  6
 10 25  1  0
 11 26  1  0
 12 27  1  1
 13 28  1  0
 14 29  1  6
 15 30  1  0
 15 31  1  0
M  END
