
     RDKit          3D

 44 46  0  0  0  0  0  0  0  0999 V2000
   31.2597   61.1490  -73.5998 Cl  0  0  0  0  0  0  0  0  0  0  0  0
   28.5013   58.3330  -70.1380 C   0  0  0  0  0  0  0  0  0  0  0  0
   27.3894   59.1448  -70.4404 C   0  0  0  0  0  0  0  0  0  0  0  0
   26.0995   58.6137  -70.3787 C   0  0  0  0  0  0  0  0  0  0  0  0
   25.9165   57.2741  -70.0364 C   0  0  0  0  0  0  0  0  0  0  0  0
   27.0153   56.4586  -69.7649 C   0  0  0  0  0  0  0  0  0  0  0  0
   28.3171   56.9835  -69.7757 C   0  0  0  0  0  0  0  0  0  0  0  0
   29.5121   56.1000  -69.5033 C   0  0  0  0  0  0  0  0  0  0  0  0
   29.2469   55.1875  -68.4005 N   0  0  0  0  0  0  0  0  0  0  0  0
   28.5262   53.9741  -68.5859 C   0  0  0  0  0  0  0  0  0  0  0  0
   28.2501   53.1199  -67.4247 C   0  0  0  0  0  0  0  0  0  0  0  0
   29.2419   52.2251  -66.9998 C   0  0  0  0  0  0  0  0  0  0  0  0
   29.0086   51.3815  -65.9120 C   0  0  0  0  0  0  0  0  0  0  0  0
   27.7875   51.4248  -65.2372 C   0  0  0  0  0  0  0  0  0  0  0  0
   26.7952   52.3170  -65.6441 C   0  0  0  0  0  0  0  0  0  0  0  0
   27.0194   53.1802  -66.7287 C   0  0  0  0  0  0  0  0  0  0  0  0
   25.9903   54.0975  -67.1079 N   0  0  0  0  0  0  0  0  0  0  0  0
   28.1362   53.6322  -69.7344 O   0  0  0  0  0  0  0  0  0  0  0  0
   26.2541   55.4399  -67.0762 O   0  0  0  0  0  0  0  0  0  0  0  0
   24.8982   53.6957  -67.5662 O   0  0  0  0  0  0  0  0  0  0  0  0
   29.7899   58.8642  -70.1738 O   0  0  0  0  0  0  0  0  0  0  0  0
   30.4729   59.1114  -71.3659 C   0  0  0  0  0  0  0  0  0  0  0  0
   29.9543   58.8058  -72.4749 O   0  0  0  0  0  0  0  0  0  0  0  0
   31.8199   59.7113  -71.2944 C   0  0  0  0  0  0  0  0  0  0  0  0
   32.6452   59.3815  -70.2070 C   0  0  0  0  0  0  0  0  0  0  0  0
   33.9129   59.9551  -70.0818 C   0  0  0  0  0  0  0  0  0  0  0  0
   34.3616   60.8806  -71.0266 C   0  0  0  0  0  0  0  0  0  0  0  0
   33.5444   61.2347  -72.1036 C   0  0  0  0  0  0  0  0  0  0  0  0
   32.2752   60.6533  -72.2473 C   0  0  0  0  0  0  0  0  0  0  0  0
   27.6175   60.9831  -70.9064 Br  0  0  0  0  0  0  0  0  0  0  0  0
   24.1617   56.5452  -69.9449 Br  0  0  0  0  0  0  0  0  0  0  0  0
   25.2434   59.2395  -70.5964 H   0  0  0  0  0  0  0  0  0  0  0  0
   26.8472   55.4143  -69.5730 H   0  0  0  0  0  0  0  0  0  0  0  0
   29.7727   55.5430  -70.4288 H   0  0  0  0  0  0  0  0  0  0  0  0
   30.4032   56.7046  -69.2332 H   0  0  0  0  0  0  0  0  0  0  0  0
   29.5982   55.4358  -67.4478 H   0  0  0  0  0  0  0  0  0  0  0  0
   30.1928   52.1738  -67.5166 H   0  0  0  0  0  0  0  0  0  0  0  0
   29.7769   50.6895  -65.5920 H   0  0  0  0  0  0  0  0  0  0  0  0
   27.6115   50.7675  -64.3955 H   0  0  0  0  0  0  0  0  0  0  0  0
   25.8573   52.3478  -65.1039 H   0  0  0  0  0  0  0  0  0  0  0  0
   32.3114   58.6726  -69.4589 H   0  0  0  0  0  0  0  0  0  0  0  0
   34.5460   59.6878  -69.2456 H   0  0  0  0  0  0  0  0  0  0  0  0
   35.3415   61.3280  -70.9217 H   0  0  0  0  0  0  0  0  0  0  0  0
   33.8961   61.9600  -72.8264 H   0  0  0  0  0  0  0  0  0  0  0  0
  3  2  2  0
  4  3  1  0
  5  4  2  0
  6  5  1  0
  7  6  2  0
  7  2  1  0
  8  7  1  0
  9  8  1  0
 10  9  1  0
 11 10  1  0
 12 11  2  0
 13 12  1  0
 14 13  2  0
 15 14  1  0
 16 15  2  0
 16 11  1  0
 17 16  1  0
 18 10  2  0
 19 17  1  0
 20 17  2  0
 21  2  1  0
 22 21  1  0
 23 22  2  0
 24 22  1  0
 25 24  2  0
 26 25  1  0
 27 26  2  0
 28 27  1  0
 29 24  1  0
 29  1  1  0
 29 28  2  0
 30  3  1  0
 31  5  1  0
  4 32  1  0
  6 33  1  0
  8 34  1  0
  8 35  1  0
  9 36  1  0
 12 37  1  0
 13 38  1  0
 14 39  1  0
 15 40  1  0
 25 41  1  0
 26 42  1  0
 27 43  1  0
 28 44  1  0
M  CHG  2  17   1  19  -1
M  END
