
     RDKit          3D

 44 46  0  0  0  0  0  0  0  0999 V2000
    5.0324   19.6712    0.0063 Cl  0  0  0  0  0  0  0  0  0  0  0  0
    2.2460   17.2062    3.7096 C   0  0  0  0  0  0  0  0  0  0  0  0
    1.1438   17.8897    3.1537 C   0  0  0  0  0  0  0  0  0  0  0  0
   -0.1473   17.3900    3.3301 C   0  0  0  0  0  0  0  0  0  0  0  0
   -0.3426   16.2074    4.0428 C   0  0  0  0  0  0  0  0  0  0  0  0
    0.7451   15.5158    4.5781 C   0  0  0  0  0  0  0  0  0  0  0  0
    2.0483   16.0220    4.4592 C   0  0  0  0  0  0  0  0  0  0  0  0
    3.2287   15.2538    5.0207 C   0  0  0  0  0  0  0  0  0  0  0  0
    2.8759   14.5392    6.2456 N   0  0  0  0  0  0  0  0  0  0  0  0
    2.5255   13.1549    6.2521 C   0  0  0  0  0  0  0  0  0  0  0  0
    2.4218   12.4335    7.5310 C   0  0  0  0  0  0  0  0  0  0  0  0
    3.5218   12.4541    8.3996 C   0  0  0  0  0  0  0  0  0  0  0  0
    3.4755   11.7612    9.6105 C   0  0  0  0  0  0  0  0  0  0  0  0
    2.3330   11.0441    9.9682 C   0  0  0  0  0  0  0  0  0  0  0  0
    1.2286   11.0156    9.1162 C   0  0  0  0  0  0  0  0  0  0  0  0
    1.2548   11.7127    7.8950 C   0  0  0  0  0  0  0  0  0  0  0  0
    0.0897   11.7043    7.0587 N   0  0  0  0  0  0  0  0  0  0  0  0
    2.2897   12.5522    5.1718 O   0  0  0  0  0  0  0  0  0  0  0  0
   -0.7609   10.6318    7.0884 O   0  0  0  0  0  0  0  0  0  0  0  0
   -0.2187   12.7018    6.3725 O   0  0  0  0  0  0  0  0  0  0  0  0
    3.5357   17.7085    3.5353 O   0  0  0  0  0  0  0  0  0  0  0  0
    4.2146   17.6629    2.3117 C   0  0  0  0  0  0  0  0  0  0  0  0
    3.6539   17.1942    1.2837 O   0  0  0  0  0  0  0  0  0  0  0  0
    5.6130   18.1320    2.2623 C   0  0  0  0  0  0  0  0  0  0  0  0
    6.4910   17.6967    3.2690 C   0  0  0  0  0  0  0  0  0  0  0  0
    7.8153   18.1353    3.2904 C   0  0  0  0  0  0  0  0  0  0  0  0
    8.2752   19.0255    2.3188 C   0  0  0  0  0  0  0  0  0  0  0  0
    7.4135   19.4790    1.3171 C   0  0  0  0  0  0  0  0  0  0  0  0
    6.0830   19.0373    1.2754 C   0  0  0  0  0  0  0  0  0  0  0  0
    1.3893   19.5196    2.1807 Br  0  0  0  0  0  0  0  0  0  0  0  0
   -2.1022   15.5239    4.2784 Br  0  0  0  0  0  0  0  0  0  0  0  0
   -0.9953   17.9184    2.9134 H   0  0  0  0  0  0  0  0  0  0  0  0
    0.5685   14.5733    5.0577 H   0  0  0  0  0  0  0  0  0  0  0  0
    3.6040   14.5487    4.2483 H   0  0  0  0  0  0  0  0  0  0  0  0
    4.0657   15.9436    5.2589 H   0  0  0  0  0  0  0  0  0  0  0  0
    2.8958   15.0627    7.1500 H   0  0  0  0  0  0  0  0  0  0  0  0
    4.4193   13.0008    8.1358 H   0  0  0  0  0  0  0  0  0  0  0  0
    4.3297   11.7799   10.2749 H   0  0  0  0  0  0  0  0  0  0  0  0
    2.3032   10.5106   10.9095 H   0  0  0  0  0  0  0  0  0  0  0  0
    0.3462   10.4654    9.4172 H   0  0  0  0  0  0  0  0  0  0  0  0
    6.1533   17.0102    4.0362 H   0  0  0  0  0  0  0  0  0  0  0  0
    8.4862   17.7895    4.0662 H   0  0  0  0  0  0  0  0  0  0  0  0
    9.3017   19.3678    2.3433 H   0  0  0  0  0  0  0  0  0  0  0  0
    7.7796   20.1749    0.5730 H   0  0  0  0  0  0  0  0  0  0  0  0
  3  2  2  0
  4  3  1  0
  5  4  2  0
  6  5  1  0
  7  6  2  0
  7  2  1  0
  8  7  1  0
  9  8  1  0
 10  9  1  0
 11 10  1  0
 12 11  2  0
 13 12  1  0
 14 13  2  0
 15 14  1  0
 16 15  2  0
 16 11  1  0
 17 16  1  0
 18 10  2  0
 19 17  1  0
 20 17  2  0
 21  2  1  0
 22 21  1  0
 23 22  2  0
 24 22  1  0
 25 24  2  0
 26 25  1  0
 27 26  2  0
 28 27  1  0
 29  1  1  0
 29 28  2  0
 29 24  1  0
 30  3  1  0
 31  5  1  0
  4 32  1  0
  6 33  1  0
  8 34  1  0
  8 35  1  0
  9 36  1  0
 12 37  1  0
 13 38  1  0
 14 39  1  0
 15 40  1  0
 25 41  1  0
 26 42  1  0
 27 43  1  0
 28 44  1  0
M  CHG  2  17   1  19  -1
M  END
