
     RDKit          3D

 44 46  0  0  0  0  0  0  0  0999 V2000
    1.0723   -3.3209  -36.7098 Cl  0  0  0  0  0  0  0  0  0  0  0  0
    3.8603   -3.2085  -40.3155 C   0  0  0  0  0  0  0  0  0  0  0  0
    4.9742   -3.1068  -39.4575 C   0  0  0  0  0  0  0  0  0  0  0  0
    6.2615   -3.3014  -39.9596 C   0  0  0  0  0  0  0  0  0  0  0  0
    6.4427   -3.6083  -41.3080 C   0  0  0  0  0  0  0  0  0  0  0  0
    5.3450   -3.7220  -42.1632 C   0  0  0  0  0  0  0  0  0  0  0  0
    4.0427   -3.4910  -41.6892 C   0  0  0  0  0  0  0  0  0  0  0  0
    2.8496   -3.6467  -42.6061 C   0  0  0  0  0  0  0  0  0  0  0  0
    3.1411   -3.1443  -43.9446 N   0  0  0  0  0  0  0  0  0  0  0  0
    3.4857   -4.0031  -45.0305 C   0  0  0  0  0  0  0  0  0  0  0  0
    3.5025   -3.4600  -46.3989 C   0  0  0  0  0  0  0  0  0  0  0  0
    2.3409   -2.8588  -46.9022 C   0  0  0  0  0  0  0  0  0  0  0  0
    2.3197   -2.3412  -48.2007 C   0  0  0  0  0  0  0  0  0  0  0  0
    3.4552   -2.4168  -49.0090 C   0  0  0  0  0  0  0  0  0  0  0  0
    4.6192   -3.0072  -48.5195 C   0  0  0  0  0  0  0  0  0  0  0  0
    4.6581   -3.5176  -47.2122 C   0  0  0  0  0  0  0  0  0  0  0  0
    5.8645   -4.1152  -46.7437 N   0  0  0  0  0  0  0  0  0  0  0  0
    3.7640   -5.2149  -44.8243 O   0  0  0  0  0  0  0  0  0  0  0  0
    6.9616   -4.1071  -47.5620 O   0  0  0  0  0  0  0  0  0  0  0  0
    5.9580   -4.5614  -45.5781 O   0  0  0  0  0  0  0  0  0  0  0  0
    2.5727   -3.0131  -39.8143 O   0  0  0  0  0  0  0  0  0  0  0  0
    1.6229   -4.0375  -39.7289 C   0  0  0  0  0  0  0  0  0  0  0  0
    1.9350   -5.2263  -40.0127 O   0  0  0  0  0  0  0  0  0  0  0  0
    0.2409   -3.6910  -39.3443 C   0  0  0  0  0  0  0  0  0  0  0  0
   -0.7404   -3.6605  -40.3495 C   0  0  0  0  0  0  0  0  0  0  0  0
   -2.0571   -3.3160  -40.0418 C   0  0  0  0  0  0  0  0  0  0  0  0
   -2.4058   -2.9800  -38.7325 C   0  0  0  0  0  0  0  0  0  0  0  0
   -1.4400   -2.9920  -37.7226 C   0  0  0  0  0  0  0  0  0  0  0  0
   -0.1160   -3.3505  -38.0149 C   0  0  0  0  0  0  0  0  0  0  0  0
    4.7470   -2.6820  -37.6068 Br  0  0  0  0  0  0  0  0  0  0  0  0
    8.1990   -3.8770  -41.9861 Br  0  0  0  0  0  0  0  0  0  0  0  0
    7.1181   -3.2168  -39.3031 H   0  0  0  0  0  0  0  0  0  0  0  0
    5.5173   -4.0033  -43.1891 H   0  0  0  0  0  0  0  0  0  0  0  0
    2.5545   -4.7173  -42.6413 H   0  0  0  0  0  0  0  0  0  0  0  0
    1.9774   -3.0826  -42.2133 H   0  0  0  0  0  0  0  0  0  0  0  0
    3.0787   -2.1145  -44.1123 H   0  0  0  0  0  0  0  0  0  0  0  0
    1.4484   -2.7955  -46.2913 H   0  0  0  0  0  0  0  0  0  0  0  0
    1.4172   -1.8815  -48.5822 H   0  0  0  0  0  0  0  0  0  0  0  0
    3.4318   -2.0171  -50.0146 H   0  0  0  0  0  0  0  0  0  0  0  0
    5.4966   -3.0569  -49.1522 H   0  0  0  0  0  0  0  0  0  0  0  0
   -0.4892   -3.9128  -41.3727 H   0  0  0  0  0  0  0  0  0  0  0  0
   -2.8082   -3.3023  -40.8210 H   0  0  0  0  0  0  0  0  0  0  0  0
   -3.4268   -2.7066  -38.4994 H   0  0  0  0  0  0  0  0  0  0  0  0
   -1.7206   -2.7232  -36.7121 H   0  0  0  0  0  0  0  0  0  0  0  0
  3  2  2  0
  4  3  1  0
  5  4  2  0
  6  5  1  0
  7  6  2  0
  7  2  1  0
  8  7  1  0
  9  8  1  0
 10  9  1  0
 11 10  1  0
 12 11  2  0
 13 12  1  0
 14 13  2  0
 15 14  1  0
 16 15  2  0
 16 11  1  0
 17 16  1  0
 18 10  2  0
 19 17  1  0
 20 17  2  0
 21  2  1  0
 22 21  1  0
 23 22  2  0
 24 22  1  0
 25 24  2  0
 26 25  1  0
 27 26  2  0
 28 27  1  0
 29 28  2  0
 29 24  1  0
 29  1  1  0
 30  3  1  0
 31  5  1  0
  4 32  1  0
  6 33  1  0
  8 34  1  0
  8 35  1  0
  9 36  1  0
 12 37  1  0
 13 38  1  0
 14 39  1  0
 15 40  1  0
 25 41  1  0
 26 42  1  0
 27 43  1  0
 28 44  1  0
M  CHG  2  17   1  19  -1
M  END
