
     RDKit          3D

 16 16  0  0  0  0  0  0  0  0999 V2000
   58.5631   37.4972   17.8677 C   0  0  0  0  0  0  0  0  0  0  0  0
   59.3149   37.3283   18.8702 O   0  0  0  0  0  0  0  0  0  0  0  0
   58.8363   36.8000   16.6010 C   0  0  0  0  0  0  0  0  0  0  0  0
   59.7147   35.9020   16.5535 O   0  0  0  0  0  0  0  0  0  0  0  0
   58.0224   37.0767   15.3694 C   0  0  0  0  0  0  0  0  0  0  0  0
   57.3136   38.4296   15.4447 C   0  0  0  0  0  0  0  0  0  0  0  0
   56.5145   38.5376   16.7421 C   0  0  0  0  0  0  0  0  0  0  0  0
   57.4104   38.4411   17.9877 C   0  0  0  0  0  0  0  0  0  0  0  0
   58.6844   37.0650   14.4767 H   0  0  0  0  0  0  0  0  0  0  0  0
   57.2685   36.2688   15.2502 H   0  0  0  0  0  0  0  0  0  0  0  0
   56.6272   38.5339   14.5768 H   0  0  0  0  0  0  0  0  0  0  0  0
   58.0617   39.2515   15.3954 H   0  0  0  0  0  0  0  0  0  0  0  0
   55.9637   39.5029   16.7581 H   0  0  0  0  0  0  0  0  0  0  0  0
   55.7588   37.7216   16.7714 H   0  0  0  0  0  0  0  0  0  0  0  0
   56.7873   38.1478   18.8599 H   0  0  0  0  0  0  0  0  0  0  0  0
   57.8234   39.4512   18.1993 H   0  0  0  0  0  0  0  0  0  0  0  0
  2  1  2  0
  3  1  1  0
  4  3  2  0
  5  3  1  0
  6  5  1  0
  7  6  1  0
  8  1  1  0
  8  7  1  0
  5  9  1  0
  5 10  1  0
  6 11  1  0
  6 12  1  0
  7 13  1  0
  7 14  1  0
  8 15  1  0
  8 16  1  0
M  END
