
     RDKit          3D

 34 33  0  0  0  0  0  0  0  0999 V2000
   17.0654   -0.2038   17.2980 P   0  0  0  0  0  0  0  0  0  0  0  0
   13.2110    6.8409   13.1027 P   0  0  0  0  0  0  0  0  0  0  0  0
   18.3607   -0.4106   16.5451 O   0  0  0  0  0  0  0  0  0  0  0  0
   16.2282   -1.6626   17.4055 O   0  0  0  0  0  0  0  0  0  0  0  0
   17.4090    0.3293   18.8586 O   0  0  0  0  0  0  0  0  0  0  0  0
   14.2456    6.9209   11.9975 O   0  0  0  0  0  0  0  0  0  0  0  0
   13.5692    7.9847   14.2829 O   0  0  0  0  0  0  0  0  0  0  0  0
   11.6880    7.1579   12.4691 O   0  0  0  0  0  0  0  0  0  0  0  0
   14.8481    0.5501   16.2326 C   0  0  0  0  0  0  0  0  0  0  0  0
   16.1505    1.0011   16.5212 O   0  0  0  0  0  0  0  0  0  0  0  0
   13.9173    1.0903   17.2942 C   0  0  0  0  0  0  0  0  0  0  0  0
   14.2423    0.9958   18.4694 O   0  0  0  0  0  0  0  0  0  0  0  0
   12.6132    1.7734   16.9268 C   0  0  1  0  0  0  0  0  0  0  0  0
   11.6307    1.5702   17.9186 O   0  0  0  0  0  0  0  0  0  0  0  0
   12.8248    3.2919   16.6278 C   0  0  2  0  0  0  0  0  0  0  0  0
   12.1132    4.0899   17.5449 O   0  0  0  0  0  0  0  0  0  0  0  0
   12.4088    3.6185   15.1744 C   0  0  2  0  0  0  0  0  0  0  0  0
   13.2337    2.9346   14.2619 O   0  0  0  0  0  0  0  0  0  0  0  0
   12.3817    5.1206   14.8388 C   0  0  0  0  0  0  0  0  0  0  0  0
   13.3056    5.2963   13.7921 O   0  0  0  0  0  0  0  0  0  0  0  0
   16.3182   -1.9427   18.3514 H   0  0  0  0  0  0  0  0  0  0  0  0
   17.8339    1.2155   18.7357 H   0  0  0  0  0  0  0  0  0  0  0  0
   14.4269    7.6830   14.6758 H   0  0  0  0  0  0  0  0  0  0  0  0
   11.5789    6.5056   11.7316 H   0  0  0  0  0  0  0  0  0  0  0  0
   14.8044   -0.5610   16.2752 H   0  0  0  0  0  0  0  0  0  0  0  0
   14.5258    0.8975   15.2286 H   0  0  0  0  0  0  0  0  0  0  0  0
   12.2374    1.2543   16.0179 H   0  0  0  0  0  0  0  0  0  0  0  0
   11.9707    1.9426   18.7741 H   0  0  0  0  0  0  0  0  0  0  0  0
   13.9004    3.5562   16.7376 H   0  0  0  0  0  0  0  0  0  0  0  0
   11.1438    3.9798   17.3573 H   0  0  0  0  0  0  0  0  0  0  0  0
   11.3700    3.2421   15.0338 H   0  0  0  0  0  0  0  0  0  0  0  0
   14.1487    2.9077   14.6472 H   0  0  0  0  0  0  0  0  0  0  0  0
   12.6757    5.7251   15.7252 H   0  0  0  0  0  0  0  0  0  0  0  0
   11.3567    5.4014   14.5139 H   0  0  0  0  0  0  0  0  0  0  0  0
  3  1  2  0
  4  1  1  0
  5  1  1  0
  6  2  2  0
  7  2  1  0
  8  2  1  0
 10  9  1  0
 10  1  1  0
 11  9  1  0
 12 11  2  0
 13 11  1  0
 13 14  1  0
 15 13  1  0
 15 16  1  0
 17 15  1  0
 17 18  1  0
 19 17  1  0
 20 19  1  0
 20  2  1  0
  4 21  1  0
  5 22  1  0
  7 23  1  0
  8 24  1  0
  9 25  1  0
  9 26  1  0
 13 27  1  6
 14 28  1  0
 15 29  1  6
 16 30  1  0
 17 31  1  1
 18 32  1  0
 19 33  1  0
 19 34  1  0
M  END
