
     RDKit          3D

 29 29  0  0  0  0  0  0  0  0999 V2000
   23.8847   -9.9597   22.1825 P   0  0  0  0  0  0  0  0  0  0  0  0
   24.8859   -9.5434   23.2295 O   0  0  0  0  0  0  0  0  0  0  0  0
   22.3666  -10.1186   22.8752 O   0  0  0  0  0  0  0  0  0  0  0  0
   23.8236   -8.8092   20.9636 O   0  0  0  0  0  0  0  0  0  0  0  0
   24.3898  -11.4648   21.6086 O   0  0  0  0  0  0  0  0  0  0  0  0
   24.1468  -14.9571   18.6211 N   0  0  0  0  0  0  0  0  0  0  0  0
   23.0582  -15.5523   19.1656 C   0  0  0  0  0  0  0  0  0  0  0  0
   22.7184  -16.9534   18.7276 C   0  0  0  0  0  0  0  0  0  0  0  0
   22.2826  -14.8501   20.1204 C   0  0  0  0  0  0  0  0  0  0  0  0
   21.1720  -15.4678   20.6852 O   0  0  0  0  0  0  0  0  0  0  0  0
   22.6440  -13.5206   20.4947 C   0  0  0  0  0  0  0  0  0  0  0  0
   21.8874  -12.6175   21.4876 C   0  0  0  0  0  0  0  0  0  0  0  0
   21.8904  -12.9638   22.8940 N   0  0  0  0  0  0  0  0  0  0  0  0
   23.7769  -12.9386   19.8681 C   0  0  0  0  0  0  0  0  0  0  0  0
   24.2791  -11.5437   20.2129 C   0  0  0  0  0  0  0  0  0  0  0  0
   24.5185  -13.6977   18.9534 C   0  0  0  0  0  0  0  0  0  0  0  0
   21.9245  -10.8416   22.3629 H   0  0  0  0  0  0  0  0  0  0  0  0
   22.9685   -8.9822   20.4948 H   0  0  0  0  0  0  0  0  0  0  0  0
   21.6867  -17.2205   19.0412 H   0  0  0  0  0  0  0  0  0  0  0  0
   22.7758  -17.0288   17.6214 H   0  0  0  0  0  0  0  0  0  0  0  0
   23.4208  -17.6767   19.1925 H   0  0  0  0  0  0  0  0  0  0  0  0
   20.2195  -15.1612   20.5362 H   0  0  0  0  0  0  0  0  0  0  0  0
   22.2905  -11.5849   21.4064 H   0  0  0  0  0  0  0  0  0  0  0  0
   20.8221  -12.5807   21.1742 H   0  0  0  0  0  0  0  0  0  0  0  0
   20.9087  -12.9338   23.2523 H   0  0  0  0  0  0  0  0  0  0  0  0
   22.4672  -12.2658   23.4165 H   0  0  0  0  0  0  0  0  0  0  0  0
   25.2809  -11.3859   19.7542 H   0  0  0  0  0  0  0  0  0  0  0  0
   23.6191  -10.7563   19.7940 H   0  0  0  0  0  0  0  0  0  0  0  0
   25.4038  -13.2805   18.4905 H   0  0  0  0  0  0  0  0  0  0  0  0
  2  1  2  0
  3  1  1  0
  4  1  1  0
  5  1  1  0
  7  6  2  0
  8  7  1  0
  9  7  1  0
 10  9  1  0
 11  9  2  0
 12 11  1  0
 13 12  1  0
 14 11  1  0
 15 14  1  0
 15  5  1  0
 16 14  2  0
 16  6  1  0
  3 17  1  0
  4 18  1  0
  8 19  1  0
  8 20  1  0
  8 21  1  0
 10 22  1  0
 12 23  1  0
 12 24  1  0
 13 25  1  0
 13 26  1  0
 15 27  1  0
 15 28  1  0
 16 29  1  0
M  END
