
     RDKit          3D

 35 36  0  0  0  0  0  0  0  0999 V2000
   -4.8971    2.0387   25.1401 P   0  0  0  0  0  0  0  0  0  0  0  0
   -4.5801    3.0671   26.1950 O   0  0  0  0  0  0  0  0  0  0  0  0
   -6.0713    0.9876   25.7308 O   0  0  0  0  0  0  0  0  0  0  0  0
   -5.4496    2.8263   23.7620 O   0  0  0  0  0  0  0  0  0  0  0  0
   -3.4186    0.6083   23.5998 C   0  0  0  0  0  0  0  0  0  0  0  0
   -3.4686    1.1799   24.8755 O   0  0  0  0  0  0  0  0  0  0  0  0
   -2.0726   -0.1317   23.5245 C   0  0  1  0  0  0  0  0  0  0  0  0
   -2.0125   -0.8957   22.3444 O   0  0  0  0  0  0  0  0  0  0  0  0
   -0.8676    0.8244   23.5638 C   0  0  1  0  0  0  0  0  0  0  0  0
    0.1948    0.2358   24.2791 O   0  0  0  0  0  0  0  0  0  0  0  0
   -0.5182    0.9543   22.1000 C   0  0  1  0  0  0  0  0  0  0  0  0
    0.8480    1.2164   21.8884 O   0  0  0  0  0  0  0  0  0  0  0  0
   -0.9315   -0.4229   21.5791 C   0  0  2  0  0  0  0  0  0  0  0  0
   -1.3103   -0.4371   20.1543 N   0  0  0  0  0  0  0  0  0  0  0  0
    0.1028   -2.2575   19.7396 O   0  0  0  0  0  0  0  0  0  0  0  0
   -2.4046    0.3604   19.6643 C   0  0  0  0  0  0  0  0  0  0  0  0
   -3.0494    1.1192   20.4300 O   0  0  0  0  0  0  0  0  0  0  0  0
   -2.7837    0.2897   18.3002 N   0  0  0  0  0  0  0  0  0  0  0  0
   -2.1559   -0.6093   17.3990 C   0  0  0  0  0  0  0  0  0  0  0  0
   -2.5612   -0.6617   16.2115 O   0  0  0  0  0  0  0  0  0  0  0  0
   -1.0150   -1.4708   17.8225 C   0  0  0  0  0  0  0  0  0  0  0  0
   -0.7200   -1.4205   19.2827 C   0  0  0  0  0  0  0  0  0  0  0  0
   -5.7128    0.0817   25.5523 H   0  0  0  0  0  0  0  0  0  0  0  0
   -5.2148    2.2231   23.0123 H   0  0  0  0  0  0  0  0  0  0  0  0
   -4.2511   -0.1180   23.4638 H   0  0  0  0  0  0  0  0  0  0  0  0
   -3.4631    1.3987   22.8233 H   0  0  0  0  0  0  0  0  0  0  0  0
   -2.0232   -0.8332   24.3877 H   0  0  0  0  0  0  0  0  0  0  0  0
   -1.1122    1.8247   23.9925 H   0  0  0  0  0  0  0  0  0  0  0  0
    0.3452    0.8058   25.0778 H   0  0  0  0  0  0  0  0  0  0  0  0
   -1.1228    1.7703   21.6510 H   0  0  0  0  0  0  0  0  0  0  0  0
    0.9669    2.1960   21.9970 H   0  0  0  0  0  0  0  0  0  0  0  0
   -0.0750   -1.1069   21.7710 H   0  0  0  0  0  0  0  0  0  0  0  0
   -3.5689    0.8888   17.9577 H   0  0  0  0  0  0  0  0  0  0  0  0
   -0.1071   -1.1508   17.2686 H   0  0  0  0  0  0  0  0  0  0  0  0
   -1.2399   -2.5214   17.5382 H   0  0  0  0  0  0  0  0  0  0  0  0
  2  1  2  0
  3  1  1  0
  4  1  1  0
  6  5  1  0
  6  1  1  0
  7  5  1  0
  8  7  1  0
  9  7  1  0
  9 10  1  0
 11  9  1  0
 11 12  1  0
 13 11  1  0
 13  8  1  0
 13 14  1  0
 16 14  1  0
 17 16  2  0
 18 16  1  0
 19 18  1  0
 20 19  2  0
 21 19  1  0
 22 21  1  0
 22 15  2  0
 22 14  1  0
  3 23  1  0
  4 24  1  0
  5 25  1  0
  5 26  1  0
  7 27  1  1
  9 28  1  1
 10 29  1  0
 11 30  1  6
 12 31  1  0
 13 32  1  6
 18 33  1  0
 21 34  1  0
 21 35  1  0
M  END
