
     RDKit          3D

 45 45  0  0  0  0  0  0  0  0999 V2000
  -24.4691  -16.3691   21.0325 N   0  0  0  0  0  0  0  0  0  0  0  0
  -25.8569  -16.6579   21.4520 C   0  0  2  0  0  0  0  0  0  0  0  0
  -26.5479  -17.7036   20.5810 C   0  0  0  0  0  0  0  0  0  0  0  0
  -27.7191  -18.0783   20.8613 O   0  0  0  0  0  0  0  0  0  0  0  0
  -26.6580  -15.3595   21.3798 C   0  0  0  0  0  0  0  0  0  0  0  0
  -26.7207  -14.7559   19.9532 C   0  0  0  0  0  0  0  0  0  0  0  0
  -26.7610  -13.2574   19.9783 C   0  0  0  0  0  0  0  0  0  0  0  0
  -27.1728  -12.5595   21.1488 N   0  0  0  0  0  0  0  0  0  0  0  0
  -26.4471  -12.6010   18.9493 O   0  0  0  0  0  0  0  0  0  0  0  0
  -22.4549  -11.2881   23.5117 P   0  0  0  0  0  0  0  0  0  0  0  0
  -23.9265  -11.4341   23.8253 O   0  0  0  0  0  0  0  0  0  0  0  0
  -21.6109  -10.9325   24.9131 O   0  0  0  0  0  0  0  0  0  0  0  0
  -22.1849  -10.0868   22.3664 O   0  0  0  0  0  0  0  0  0  0  0  0
  -21.8204  -12.7696   23.0158 O   0  0  0  0  0  0  0  0  0  0  0  0
  -25.9439  -18.2001   19.4371 O   0  0  0  0  0  0  0  0  0  0  0  0
  -19.5077  -15.6706   20.7662 N   0  0  0  0  0  0  0  0  0  0  0  0
  -20.1882  -16.8308   20.9328 C   0  0  0  0  0  0  0  0  0  0  0  0
  -19.4902  -18.1320   20.6660 C   0  0  0  0  0  0  0  0  0  0  0  0
  -21.5206  -16.7957   21.3634 C   0  0  0  0  0  0  0  0  0  0  0  0
  -22.2030  -17.9796   21.6227 O   0  0  0  0  0  0  0  0  0  0  0  0
  -22.1756  -15.5630   21.5581 C   0  0  0  0  0  0  0  0  0  0  0  0
  -23.6375  -15.6113   22.0060 C   0  0  0  0  0  0  0  0  0  0  0  0
  -21.4356  -14.3607   21.3546 C   0  0  0  0  0  0  0  0  0  0  0  0
  -21.9864  -12.9807   21.6418 C   0  0  0  0  0  0  0  0  0  0  0  0
  -20.0827  -14.4615   20.9818 C   0  0  0  0  0  0  0  0  0  0  0  0
  -24.0250  -17.2231   20.6498 H   0  0  0  0  0  0  0  0  0  0  0  0
  -25.8631  -17.0329   22.4999 H   0  0  0  0  0  0  0  0  0  0  0  0
  -26.2079  -14.6532   22.1044 H   0  0  0  0  0  0  0  0  0  0  0  0
  -27.6955  -15.5471   21.7353 H   0  0  0  0  0  0  0  0  0  0  0  0
  -25.8282  -15.0584   19.3631 H   0  0  0  0  0  0  0  0  0  0  0  0
  -27.6217  -15.1349   19.4250 H   0  0  0  0  0  0  0  0  0  0  0  0
  -27.7356  -13.0154   21.9002 H   0  0  0  0  0  0  0  0  0  0  0  0
  -27.0637  -11.5220   21.1936 H   0  0  0  0  0  0  0  0  0  0  0  0
  -20.6715  -10.8192   24.6203 H   0  0  0  0  0  0  0  0  0  0  0  0
  -22.7832  -10.3127   21.6100 H   0  0  0  0  0  0  0  0  0  0  0  0
  -26.2114  -17.8657   18.5190 H   0  0  0  0  0  0  0  0  0  0  0  0
  -20.0465  -18.7143   19.9014 H   0  0  0  0  0  0  0  0  0  0  0  0
  -19.4084  -18.7188   21.6051 H   0  0  0  0  0  0  0  0  0  0  0  0
  -18.4646  -17.9487   20.2809 H   0  0  0  0  0  0  0  0  0  0  0  0
  -23.2104  -18.0694   21.5985 H   0  0  0  0  0  0  0  0  0  0  0  0
  -24.0545  -14.6024   22.1572 H   0  0  0  0  0  0  0  0  0  0  0  0
  -23.6725  -16.1164   22.9960 H   0  0  0  0  0  0  0  0  0  0  0  0
  -21.4111  -12.2222   21.0647 H   0  0  0  0  0  0  0  0  0  0  0  0
  -23.0483  -12.8929   21.3295 H   0  0  0  0  0  0  0  0  0  0  0  0
  -19.4819  -13.5702   20.8522 H   0  0  0  0  0  0  0  0  0  0  0  0
  2  1  1  0
  3  2  1  0
  4  3  2  0
  2  5  1  0
  6  5  1  0
  7  6  1  0
  8  7  1  0
  9  7  2  0
 11 10  2  0
 12 10  1  0
 13 10  1  0
 14 10  1  0
 15  3  1  0
 17 16  2  0
 18 17  1  0
 19 17  1  0
 20 19  1  0
 21 19  2  0
 22 21  1  0
 22  1  1  0
 23 21  1  0
 24 14  1  0
 24 23  1  0
 25 23  2  0
 25 16  1  0
  1 26  1  0
  2 27  1  1
  5 28  1  0
  5 29  1  0
  6 30  1  0
  6 31  1  0
  8 32  1  0
  8 33  1  0
 12 34  1  0
 13 35  1  0
 15 36  1  0
 18 37  1  0
 18 38  1  0
 18 39  1  0
 20 40  1  0
 22 41  1  0
 22 42  1  0
 24 43  1  0
 24 44  1  0
 25 45  1  0
M  END
