
     RDKit          3D

 45 45  0  0  0  0  0  0  0  0999 V2000
  -23.9644  -15.7752   22.0724 N   0  0  0  0  0  0  0  0  0  0  0  0
  -25.3485  -16.0731   22.4974 C   0  0  2  0  0  0  0  0  0  0  0  0
  -25.7991  -17.4882   22.1452 C   0  0  0  0  0  0  0  0  0  0  0  0
  -26.9427  -17.8878   22.4963 O   0  0  0  0  0  0  0  0  0  0  0  0
  -26.2837  -15.0804   21.8098 C   0  0  0  0  0  0  0  0  0  0  0  0
  -26.7218  -15.5309   20.3926 C   0  0  0  0  0  0  0  0  0  0  0  0
  -26.9200  -14.3665   19.4691 C   0  0  0  0  0  0  0  0  0  0  0  0
  -27.1408  -13.0579   19.9842 N   0  0  0  0  0  0  0  0  0  0  0  0
  -26.9121  -14.5433   18.2213 O   0  0  0  0  0  0  0  0  0  0  0  0
  -23.0861  -11.0761   24.2218 P   0  0  0  0  0  0  0  0  0  0  0  0
  -24.3640  -10.9139   23.4308 O   0  0  0  0  0  0  0  0  0  0  0  0
  -23.4465  -11.2611   25.8462 O   0  0  0  0  0  0  0  0  0  0  0  0
  -22.0613   -9.7592   24.0144 O   0  0  0  0  0  0  0  0  0  0  0  0
  -22.3274  -12.5226   23.8030 O   0  0  0  0  0  0  0  0  0  0  0  0
  -25.0058  -18.3260   21.3779 O   0  0  0  0  0  0  0  0  0  0  0  0
  -19.0079  -15.0503   21.7845 N   0  0  0  0  0  0  0  0  0  0  0  0
  -19.6818  -16.2148   21.9487 C   0  0  0  0  0  0  0  0  0  0  0  0
  -18.9786  -17.5111   21.6719 C   0  0  0  0  0  0  0  0  0  0  0  0
  -21.0121  -16.1886   22.3862 C   0  0  0  0  0  0  0  0  0  0  0  0
  -21.6872  -17.3772   22.6430 O   0  0  0  0  0  0  0  0  0  0  0  0
  -21.6723  -14.9602   22.5905 C   0  0  0  0  0  0  0  0  0  0  0  0
  -23.1317  -15.0182   23.0454 C   0  0  0  0  0  0  0  0  0  0  0  0
  -20.9394  -13.7532   22.3893 C   0  0  0  0  0  0  0  0  0  0  0  0
  -21.4956  -12.3774   22.6862 C   0  0  0  0  0  0  0  0  0  0  0  0
  -19.5879  -13.8452   22.0092 C   0  0  0  0  0  0  0  0  0  0  0  0
  -23.5179  -16.6251   21.6831 H   0  0  0  0  0  0  0  0  0  0  0  0
  -25.4374  -15.9545   23.6005 H   0  0  0  0  0  0  0  0  0  0  0  0
  -25.7669  -14.1012   21.7873 H   0  0  0  0  0  0  0  0  0  0  0  0
  -27.1917  -14.9358   22.4364 H   0  0  0  0  0  0  0  0  0  0  0  0
  -25.9518  -16.1924   19.9392 H   0  0  0  0  0  0  0  0  0  0  0  0
  -27.6692  -16.1077   20.4587 H   0  0  0  0  0  0  0  0  0  0  0  0
  -27.4727  -12.8917   20.9596 H   0  0  0  0  0  0  0  0  0  0  0  0
  -27.1392  -12.2421   19.3324 H   0  0  0  0  0  0  0  0  0  0  0  0
  -24.2108  -11.8909   25.8652 H   0  0  0  0  0  0  0  0  0  0  0  0
  -22.3463   -9.1007   24.6973 H   0  0  0  0  0  0  0  0  0  0  0  0
  -24.2622  -18.8701   21.7990 H   0  0  0  0  0  0  0  0  0  0  0  0
  -19.4003  -17.9878   20.7619 H   0  0  0  0  0  0  0  0  0  0  0  0
  -19.0833  -18.1934   22.5415 H   0  0  0  0  0  0  0  0  0  0  0  0
  -17.8959  -17.3342   21.4980 H   0  0  0  0  0  0  0  0  0  0  0  0
  -21.3427  -18.2919   22.3820 H   0  0  0  0  0  0  0  0  0  0  0  0
  -23.5530  -14.0121   23.2038 H   0  0  0  0  0  0  0  0  0  0  0  0
  -23.1591  -15.5284   24.0330 H   0  0  0  0  0  0  0  0  0  0  0  0
  -20.6600  -11.6795   22.9182 H   0  0  0  0  0  0  0  0  0  0  0  0
  -22.0374  -11.9597   21.8117 H   0  0  0  0  0  0  0  0  0  0  0  0
  -18.9923  -12.9503   21.8810 H   0  0  0  0  0  0  0  0  0  0  0  0
  2  1  1  0
  3  2  1  0
  4  3  2  0
  2  5  1  0
  6  5  1  0
  7  6  1  0
  8  7  1  0
  9  7  2  0
 11 10  2  0
 12 10  1  0
 13 10  1  0
 14 10  1  0
 15  3  1  0
 17 16  2  0
 18 17  1  0
 19 17  1  0
 20 19  1  0
 21 19  2  0
 22 21  1  0
 22  1  1  0
 23 21  1  0
 24 14  1  0
 24 23  1  0
 25 23  2  0
 25 16  1  0
  1 26  1  0
  2 27  1  1
  5 28  1  0
  5 29  1  0
  6 30  1  0
  6 31  1  0
  8 32  1  0
  8 33  1  0
 12 34  1  0
 13 35  1  0
 15 36  1  0
 18 37  1  0
 18 38  1  0
 18 39  1  0
 20 40  1  0
 22 41  1  0
 22 42  1  0
 24 43  1  0
 24 44  1  0
 25 45  1  0
M  END
