
     RDKit          3D

 45 45  0  0  0  0  0  0  0  0999 V2000
  -24.1778  -16.0687   21.6681 N   0  0  0  0  0  0  0  0  0  0  0  0
  -25.5087  -16.3200   22.2602 C   0  0  2  0  0  0  0  0  0  0  0  0
  -26.1177  -17.6542   21.8372 C   0  0  0  0  0  0  0  0  0  0  0  0
  -27.2299  -18.0140   22.3110 O   0  0  0  0  0  0  0  0  0  0  0  0
  -26.4467  -15.1972   21.8216 C   0  0  0  0  0  0  0  0  0  0  0  0
  -27.1134  -15.4569   20.4463 C   0  0  0  0  0  0  0  0  0  0  0  0
  -27.3430  -14.1862   19.6843 C   0  0  0  0  0  0  0  0  0  0  0  0
  -27.3824  -12.9315   20.3557 N   0  0  0  0  0  0  0  0  0  0  0  0
  -27.5236  -14.2228   18.4376 O   0  0  0  0  0  0  0  0  0  0  0  0
  -23.5902  -10.7731   23.0827 P   0  0  0  0  0  0  0  0  0  0  0  0
  -24.8748  -10.6144   22.3018 O   0  0  0  0  0  0  0  0  0  0  0  0
  -23.9378  -10.9721   24.7082 O   0  0  0  0  0  0  0  0  0  0  0  0
  -22.5762   -9.4476   22.8773 O   0  0  0  0  0  0  0  0  0  0  0  0
  -22.8244  -12.2113   22.6483 O   0  0  0  0  0  0  0  0  0  0  0  0
  -25.5101  -18.4516   20.8809 O   0  0  0  0  0  0  0  0  0  0  0  0
  -19.5017  -14.7012   20.5886 N   0  0  0  0  0  0  0  0  0  0  0  0
  -20.1662  -15.8716   20.7492 C   0  0  0  0  0  0  0  0  0  0  0  0
  -19.4559  -17.1609   20.4583 C   0  0  0  0  0  0  0  0  0  0  0  0
  -21.4935  -15.8579   21.1964 C   0  0  0  0  0  0  0  0  0  0  0  0
  -22.1584  -17.0529   21.4494 O   0  0  0  0  0  0  0  0  0  0  0  0
  -22.1608  -14.6356   21.4140 C   0  0  0  0  0  0  0  0  0  0  0  0
  -23.6165  -14.7071   21.8788 C   0  0  0  0  0  0  0  0  0  0  0  0
  -21.4379  -13.4221   21.2161 C   0  0  0  0  0  0  0  0  0  0  0  0
  -22.0016  -12.0523   21.5267 C   0  0  0  0  0  0  0  0  0  0  0  0
  -20.0885  -13.5019   20.8258 C   0  0  0  0  0  0  0  0  0  0  0  0
  -23.5324  -16.8471   21.8928 H   0  0  0  0  0  0  0  0  0  0  0  0
  -25.4329  -16.3196   23.3706 H   0  0  0  0  0  0  0  0  0  0  0  0
  -25.8600  -14.2579   21.8221 H   0  0  0  0  0  0  0  0  0  0  0  0
  -27.2436  -15.0638   22.5866 H   0  0  0  0  0  0  0  0  0  0  0  0
  -26.4706  -16.1131   19.8199 H   0  0  0  0  0  0  0  0  0  0  0  0
  -28.0861  -15.9736   20.5928 H   0  0  0  0  0  0  0  0  0  0  0  0
  -27.6120  -12.8495   21.3704 H   0  0  0  0  0  0  0  0  0  0  0  0
  -27.3510  -12.0492   19.7981 H   0  0  0  0  0  0  0  0  0  0  0  0
  -24.6974  -11.6074   24.7282 H   0  0  0  0  0  0  0  0  0  0  0  0
  -22.1909   -9.5558   21.9712 H   0  0  0  0  0  0  0  0  0  0  0  0
  -24.7619  -19.0872   21.1307 H   0  0  0  0  0  0  0  0  0  0  0  0
  -19.2034  -17.2229   19.3787 H   0  0  0  0  0  0  0  0  0  0  0  0
  -20.0952  -18.0209   20.7490 H   0  0  0  0  0  0  0  0  0  0  0  0
  -18.5099  -17.2204   21.0375 H   0  0  0  0  0  0  0  0  0  0  0  0
  -21.8093  -17.9633   21.1796 H   0  0  0  0  0  0  0  0  0  0  0  0
  -24.2458  -13.9549   21.3759 H   0  0  0  0  0  0  0  0  0  0  0  0
  -23.6390  -14.4603   22.9628 H   0  0  0  0  0  0  0  0  0  0  0  0
  -21.1693  -11.3502   21.7577 H   0  0  0  0  0  0  0  0  0  0  0  0
  -22.5525  -11.6324   20.6590 H   0  0  0  0  0  0  0  0  0  0  0  0
  -19.5001  -12.6018   20.6998 H   0  0  0  0  0  0  0  0  0  0  0  0
  2  1  1  0
  3  2  1  0
  4  3  2  0
  2  5  1  0
  6  5  1  0
  7  6  1  0
  8  7  1  0
  9  7  2  0
 11 10  2  0
 12 10  1  0
 13 10  1  0
 14 10  1  0
 15  3  1  0
 17 16  2  0
 18 17  1  0
 19 17  1  0
 20 19  1  0
 21 19  2  0
 22 21  1  0
 22  1  1  0
 23 21  1  0
 24 14  1  0
 24 23  1  0
 25 23  2  0
 25 16  1  0
  1 26  1  0
  2 27  1  1
  5 28  1  0
  5 29  1  0
  6 30  1  0
  6 31  1  0
  8 32  1  0
  8 33  1  0
 12 34  1  0
 13 35  1  0
 15 36  1  0
 18 37  1  0
 18 38  1  0
 18 39  1  0
 20 40  1  0
 22 41  1  0
 22 42  1  0
 24 43  1  0
 24 44  1  0
 25 45  1  0
M  END
