
     RDKit          3D

 16 15  0  0  0  0  0  0  0  0999 V2000
    9.8939   31.9943   25.7964 N   0  0  0  0  0  0  0  0  0  0  0  0
    9.2156   31.2868   24.6937 C   0  0  0  0  0  0  0  0  0  0  0  0
    9.7160   29.8796   24.5986 C   0  0  0  0  0  0  0  0  0  0  0  0
    9.3090   29.1089   23.6891 O   0  0  0  0  0  0  0  0  0  0  0  0
   10.6582   29.4306   25.5038 O   0  0  0  0  0  0  0  0  0  0  0  0
   11.1643   31.3282   26.1288 C   0  0  0  0  0  0  0  0  0  0  0  0
   10.1530   33.3881   25.4177 C   0  0  0  0  0  0  0  0  0  0  0  0
    9.3607   31.8065   23.7195 H   0  0  0  0  0  0  0  0  0  0  0  0
    8.1200   31.2229   24.8798 H   0  0  0  0  0  0  0  0  0  0  0  0
   11.6161   29.2644   25.2188 H   0  0  0  0  0  0  0  0  0  0  0  0
   11.4812   30.6310   25.3207 H   0  0  0  0  0  0  0  0  0  0  0  0
   11.9617   32.0872   26.2802 H   0  0  0  0  0  0  0  0  0  0  0  0
   11.0756   30.7570   27.0768 H   0  0  0  0  0  0  0  0  0  0  0  0
   10.1899   33.4867   24.3110 H   0  0  0  0  0  0  0  0  0  0  0  0
    9.3672   34.0683   25.8169 H   0  0  0  0  0  0  0  0  0  0  0  0
   11.1436   33.7106   25.8044 H   0  0  0  0  0  0  0  0  0  0  0  0
  2  1  1  0
  3  2  1  0
  4  3  2  0
  5  3  1  0
  6  1  1  0
  7  1  1  0
  2  8  1  0
  2  9  1  0
  5 10  1  0
  6 11  1  0
  6 12  1  0
  6 13  1  0
  7 14  1  0
  7 15  1  0
  7 16  1  0
M  END
