
     RDKit          3D

 16 15  0  0  0  0  0  0  0  0999 V2000
   10.1579   32.5118   26.9301 N   0  0  0  0  0  0  0  0  0  0  0  0
    9.4796   31.8044   25.8274 C   0  0  0  0  0  0  0  0  0  0  0  0
   10.2644   30.5932   25.4316 C   0  0  0  0  0  0  0  0  0  0  0  0
   11.5096   30.6597   25.2529 O   0  0  0  0  0  0  0  0  0  0  0  0
    9.6175   29.3808   25.2886 O   0  0  0  0  0  0  0  0  0  0  0  0
   11.4283   31.8457   27.2625 C   0  0  0  0  0  0  0  0  0  0  0  0
   10.4170   33.9057   26.5513 C   0  0  0  0  0  0  0  0  0  0  0  0
    9.3318   32.4649   24.9430 H   0  0  0  0  0  0  0  0  0  0  0  0
    8.4767   31.4430   26.1474 H   0  0  0  0  0  0  0  0  0  0  0  0
    9.5499   28.9303   24.3837 H   0  0  0  0  0  0  0  0  0  0  0  0
   11.2736   30.7679   27.4942 H   0  0  0  0  0  0  0  0  0  0  0  0
   12.1353   31.9307   26.4092 H   0  0  0  0  0  0  0  0  0  0  0  0
   11.9133   32.3312   28.1354 H   0  0  0  0  0  0  0  0  0  0  0  0
   10.3318   34.0284   25.4497 H   0  0  0  0  0  0  0  0  0  0  0  0
    9.7035   34.5996   27.0503 H   0  0  0  0  0  0  0  0  0  0  0  0
   11.4549   34.1898   26.8291 H   0  0  0  0  0  0  0  0  0  0  0  0
  2  1  1  0
  3  2  1  0
  4  3  2  0
  5  3  1  0
  6  1  1  0
  7  1  1  0
  2  8  1  0
  2  9  1  0
  5 10  1  0
  6 11  1  0
  6 12  1  0
  6 13  1  0
  7 14  1  0
  7 15  1  0
  7 16  1  0
M  END
