
     RDKit          3D

 49 52  0  0  0  0  0  0  0  0999 V2000
   27.1058    5.3138    4.4615 C   0  0  0  0  0  0  0  0  0  0  0  0
   26.2425    6.5512    4.7373 C   0  0  0  0  0  0  0  0  0  0  0  0
   24.8816    6.3716    4.1469 C   0  0  0  0  0  0  0  0  0  0  0  0
   24.2440    7.3622    3.6845 O   0  0  0  0  0  0  0  0  0  0  0  0
   24.2752    5.0328    4.1425 C   0  0  0  0  0  0  0  0  0  0  0  0
   24.9740    3.9197    4.4634 C   0  0  0  0  0  0  0  0  0  0  0  0
   24.2554    2.5869    4.4829 C   0  0  0  0  0  0  0  0  0  0  0  0
   25.0769    1.5048    3.7751 C   0  0  0  0  0  0  0  0  0  0  0  0
   26.4848    1.3931    4.3975 C   0  0  2  0  0  0  0  0  0  0  0  0
   27.2313    2.7683    4.2759 C   0  0  1  0  0  0  0  0  0  0  0  0
   26.4428    3.9712    4.9261 C   0  0  1  0  0  0  0  0  0  0  0  0
   28.7146    2.6838    4.7633 C   0  0  0  0  0  0  0  0  0  0  0  0
   29.4945    1.5241    4.1086 C   0  0  0  0  0  0  0  0  0  0  0  0
   28.7527    0.1805    4.2832 C   0  0  1  0  0  0  0  0  0  0  0  0
   27.3415    0.3185    3.6839 C   0  0  1  0  0  0  0  0  0  0  0  0
   26.8310   -1.1207    3.5899 C   0  0  0  0  0  0  0  0  0  0  0  0
   28.1032   -1.9557    3.3235 C   0  0  0  0  0  0  0  0  0  0  0  0
   29.2915   -0.9693    3.4069 C   0  0  2  0  0  0  0  0  0  0  0  0
   30.4455   -1.5674    3.9414 O   0  0  0  0  0  0  0  0  0  0  0  0
   28.7599   -0.2446    5.7908 C   0  0  0  0  0  0  0  0  0  0  0  0
   26.4692    3.8927    6.4760 C   0  0  0  0  0  0  0  0  0  0  0  0
   28.0816    5.4684    4.9688 H   0  0  0  0  0  0  0  0  0  0  0  0
   27.3062    5.2801    3.3673 H   0  0  0  0  0  0  0  0  0  0  0  0
   26.7314    7.4438    4.2901 H   0  0  0  0  0  0  0  0  0  0  0  0
   26.1490    6.7220    5.8304 H   0  0  0  0  0  0  0  0  0  0  0  0
   23.2374    4.9532    3.8409 H   0  0  0  0  0  0  0  0  0  0  0  0
   24.0765    2.2882    5.5382 H   0  0  0  0  0  0  0  0  0  0  0  0
   23.2634    2.6509    3.9839 H   0  0  0  0  0  0  0  0  0  0  0  0
   25.1527    1.7465    2.6917 H   0  0  0  0  0  0  0  0  0  0  0  0
   24.5439    0.5347    3.8747 H   0  0  0  0  0  0  0  0  0  0  0  0
   26.3586    1.1085    5.4609 H   0  0  0  0  0  0  0  0  0  0  0  0
   27.2879    2.9847    3.1835 H   0  0  0  0  0  0  0  0  0  0  0  0
   28.7666    2.5773    5.8639 H   0  0  0  0  0  0  0  0  0  0  0  0
   29.2539    3.6172    4.5037 H   0  0  0  0  0  0  0  0  0  0  0  0
   29.6248    1.7498    3.0270 H   0  0  0  0  0  0  0  0  0  0  0  0
   30.5105    1.4599    4.5556 H   0  0  0  0  0  0  0  0  0  0  0  0
   27.4425    0.6650    2.6249 H   0  0  0  0  0  0  0  0  0  0  0  0
   26.0997   -1.2304    2.7596 H   0  0  0  0  0  0  0  0  0  0  0  0
   26.3499   -1.4299    4.5432 H   0  0  0  0  0  0  0  0  0  0  0  0
   28.0636   -2.4223    2.3153 H   0  0  0  0  0  0  0  0  0  0  0  0
   28.1984   -2.7602    4.0853 H   0  0  0  0  0  0  0  0  0  0  0  0
   29.5179   -0.5847    2.3830 H   0  0  0  0  0  0  0  0  0  0  0  0
   30.7527   -2.2323    3.2714 H   0  0  0  0  0  0  0  0  0  0  0  0
   28.0552   -1.0687    6.0089 H   0  0  0  0  0  0  0  0  0  0  0  0
   28.4614    0.6151    6.4275 H   0  0  0  0  0  0  0  0  0  0  0  0
   29.7621   -0.5759    6.1300 H   0  0  0  0  0  0  0  0  0  0  0  0
   26.6601    2.8503    6.8086 H   0  0  0  0  0  0  0  0  0  0  0  0
   27.2716    4.5248    6.9056 H   0  0  0  0  0  0  0  0  0  0  0  0
   25.5001    4.2039    6.9180 H   0  0  0  0  0  0  0  0  0  0  0  0
  2  1  1  0
  3  2  1  0
  4  3  2  0
  5  3  1  0
  6  5  2  0
  7  6  1  0
  8  7  1  0
  9  8  1  0
 10  9  1  0
 11 10  1  0
 11  6  1  0
 11  1  1  0
 10 12  1  0
 13 12  1  0
 14 13  1  0
 15  9  1  0
 15 14  1  0
 15 16  1  0
 17 16  1  0
 18 17  1  0
 18 14  1  0
 18 19  1  0
 14 20  1  1
 11 21  1  1
  1 22  1  0
  1 23  1  0
  2 24  1  0
  2 25  1  0
  5 26  1  0
  7 27  1  0
  7 28  1  0
  8 29  1  0
  8 30  1  0
  9 31  1  1
 10 32  1  6
 12 33  1  0
 12 34  1  0
 13 35  1  0
 13 36  1  0
 15 37  1  6
 16 38  1  0
 16 39  1  0
 17 40  1  0
 17 41  1  0
 18 42  1  6
 19 43  1  0
 20 44  1  0
 20 45  1  0
 20 46  1  0
 21 47  1  0
 21 48  1  0
 21 49  1  0
M  END
