
     RDKit          3D

 43 45  0  0  0  0  0  0  0  0999 V2000
    0.6904   15.6814    6.2617 C   0  0  1  0  0  0  0  0  0  0  0  0
    1.7856   16.7556    6.3381 C   0  0  0  0  0  0  0  0  0  0  0  0
    2.9620   16.1641    6.9608 N   0  0  0  0  0  0  0  0  0  0  0  0
    2.7825   15.6174    8.3131 C   0  0  0  0  0  0  0  0  0  0  0  0
    1.6922   14.5471    8.2917 C   0  0  0  0  0  0  0  0  0  0  0  0
    0.3982   15.0891    7.6649 C   0  0  1  0  0  0  0  0  0  0  0  0
   -0.2917   16.0967    8.6003 C   0  0  0  0  0  0  0  0  0  0  0  0
   -0.5528   16.1604    5.6480 N   0  0  0  0  0  0  0  0  0  0  0  0
   -0.7849   17.6077    5.4806 C   0  0  0  0  0  0  0  0  0  0  0  0
   -1.4521   15.2650    4.9590 C   0  0  0  0  0  0  0  0  0  0  0  0
   -0.7221   11.7174    4.5447 C   0  0  0  0  0  0  0  0  0  0  0  0
   -1.8977   11.8833    3.9123 N   0  0  0  0  0  0  0  0  0  0  0  0
   -2.2064   13.1788    4.0389 C   0  0  0  0  0  0  0  0  0  0  0  0
   -1.2560   13.8745    4.7474 C   0  0  0  0  0  0  0  0  0  0  0  0
   -0.2869   12.9195    5.0779 C   0  0  0  0  0  0  0  0  0  0  0  0
   -3.3172   13.7549    3.5328 N   0  0  0  0  0  0  0  0  0  0  0  0
   -3.5002   15.0810    3.7376 C   0  0  0  0  0  0  0  0  0  0  0  0
   -2.5868   15.8044    4.4327 N   0  0  0  0  0  0  0  0  0  0  0  0
    4.1808   16.0250    6.2229 C   0  0  0  0  0  0  0  0  0  0  0  0
    4.3203   16.6233    5.1195 O   0  0  0  0  0  0  0  0  0  0  0  0
    5.2940   15.1941    6.7837 C   0  0  0  0  0  0  0  0  0  0  0  0
    6.0550   15.9021    7.7977 C   0  0  0  0  0  0  0  0  0  0  0  0
    6.6765   16.4633    8.5919 N   0  0  0  0  0  0  0  0  0  0  0  0
    1.1431   14.9267    5.5934 H   0  0  0  0  0  0  0  0  0  0  0  0
    1.4915   17.6323    6.9466 H   0  0  0  0  0  0  0  0  0  0  0  0
    2.0000   17.1338    5.3159 H   0  0  0  0  0  0  0  0  0  0  0  0
    3.7017   15.1831    8.7459 H   0  0  0  0  0  0  0  0  0  0  0  0
    2.4989   16.4391    9.0036 H   0  0  0  0  0  0  0  0  0  0  0  0
    2.0544   13.6788    7.6990 H   0  0  0  0  0  0  0  0  0  0  0  0
    1.5008   14.1869    9.3260 H   0  0  0  0  0  0  0  0  0  0  0  0
   -0.3080   14.2398    7.5715 H   0  0  0  0  0  0  0  0  0  0  0  0
   -0.2826   15.7803    9.6610 H   0  0  0  0  0  0  0  0  0  0  0  0
    0.2034   17.0877    8.5267 H   0  0  0  0  0  0  0  0  0  0  0  0
   -1.3496   16.2358    8.2914 H   0  0  0  0  0  0  0  0  0  0  0  0
   -0.8023   18.1545    6.4448 H   0  0  0  0  0  0  0  0  0  0  0  0
    0.0510   18.0834    4.9318 H   0  0  0  0  0  0  0  0  0  0  0  0
   -1.7443   17.7820    4.9501 H   0  0  0  0  0  0  0  0  0  0  0  0
   -0.2045   10.7703    4.6217 H   0  0  0  0  0  0  0  0  0  0  0  0
   -2.4534   11.1481    3.4213 H   0  0  0  0  0  0  0  0  0  0  0  0
    0.6274   13.0076    5.6359 H   0  0  0  0  0  0  0  0  0  0  0  0
   -4.3817   15.5676    3.3438 H   0  0  0  0  0  0  0  0  0  0  0  0
    6.0132   14.9393    5.9779 H   0  0  0  0  0  0  0  0  0  0  0  0
    4.8803   14.2649    7.2286 H   0  0  0  0  0  0  0  0  0  0  0  0
  2  1  1  0
  3  2  1  0
  4  3  1  0
  5  4  1  0
  6  1  1  0
  6  5  1  0
  6  7  1  0
  1  8  1  0
  9  8  1  0
 10  8  1  0
 12 11  1  0
 13 12  1  0
 14 13  2  0
 14 10  1  0
 15 14  1  0
 15 11  2  0
 16 13  1  0
 17 16  2  0
 18 17  1  0
 18 10  2  0
 19  3  1  0
 20 19  2  0
 21 19  1  0
 22 21  1  0
 23 22  3  0
  1 24  1  6
  2 25  1  0
  2 26  1  0
  4 27  1  0
  4 28  1  0
  5 29  1  0
  5 30  1  0
  6 31  1  6
  7 32  1  0
  7 33  1  0
  7 34  1  0
  9 35  1  0
  9 36  1  0
  9 37  1  0
 11 38  1  0
 12 39  1  0
 15 40  1  0
 17 41  1  0
 21 42  1  0
 21 43  1  0
M  END
