
     RDKit          3D

 43 45  0  0  0  0  0  0  0  0999 V2000
    1.6463   15.8016    5.0704 C   0  0  1  0  0  0  0  0  0  0  0  0
    2.7414   16.8759    5.1468 C   0  0  0  0  0  0  0  0  0  0  0  0
    3.9178   16.2844    5.7696 N   0  0  0  0  0  0  0  0  0  0  0  0
    3.7384   15.7376    7.1219 C   0  0  0  0  0  0  0  0  0  0  0  0
    2.6481   14.6673    7.1005 C   0  0  0  0  0  0  0  0  0  0  0  0
    1.3541   15.2093    6.4737 C   0  0  1  0  0  0  0  0  0  0  0  0
    0.6642   16.2169    7.4091 C   0  0  0  0  0  0  0  0  0  0  0  0
    0.4031   16.2806    4.4567 N   0  0  0  0  0  0  0  0  0  0  0  0
    0.1710   17.7279    4.2894 C   0  0  0  0  0  0  0  0  0  0  0  0
   -0.4963   15.3852    3.7678 C   0  0  0  0  0  0  0  0  0  0  0  0
    0.0403   11.7804    3.6803 C   0  0  0  0  0  0  0  0  0  0  0  0
   -1.0721   11.9614    2.9460 N   0  0  0  0  0  0  0  0  0  0  0  0
   -1.3081   13.2782    2.9500 C   0  0  0  0  0  0  0  0  0  0  0  0
   -0.3718   13.9734    3.6774 C   0  0  0  0  0  0  0  0  0  0  0  0
    0.5084   12.9948    4.1546 C   0  0  0  0  0  0  0  0  0  0  0  0
   -2.3399   13.8737    2.3156 N   0  0  0  0  0  0  0  0  0  0  0  0
   -2.4548   15.2201    2.4050 C   0  0  0  0  0  0  0  0  0  0  0  0
   -1.5526   15.9440    3.1141 N   0  0  0  0  0  0  0  0  0  0  0  0
    5.1367   16.1452    5.0317 C   0  0  0  0  0  0  0  0  0  0  0  0
    5.1049   15.7500    3.8326 O   0  0  0  0  0  0  0  0  0  0  0  0
    6.4390   16.5011    5.6810 C   0  0  0  0  0  0  0  0  0  0  0  0
    6.2589   17.0702    7.0047 C   0  0  0  0  0  0  0  0  0  0  0  0
    6.1244   17.5398    8.0504 N   0  0  0  0  0  0  0  0  0  0  0  0
    2.0990   15.0469    4.4022 H   0  0  0  0  0  0  0  0  0  0  0  0
    2.4474   17.7525    5.7554 H   0  0  0  0  0  0  0  0  0  0  0  0
    2.9559   17.2540    4.1247 H   0  0  0  0  0  0  0  0  0  0  0  0
    4.6576   15.3033    7.5547 H   0  0  0  0  0  0  0  0  0  0  0  0
    3.4547   16.5593    7.8124 H   0  0  0  0  0  0  0  0  0  0  0  0
    3.0103   13.7990    6.5077 H   0  0  0  0  0  0  0  0  0  0  0  0
    2.4567   14.3071    8.1348 H   0  0  0  0  0  0  0  0  0  0  0  0
    0.6479   14.3600    6.3803 H   0  0  0  0  0  0  0  0  0  0  0  0
    0.5696   17.2265    6.9650 H   0  0  0  0  0  0  0  0  0  0  0  0
   -0.3511   15.8564    7.6773 H   0  0  0  0  0  0  0  0  0  0  0  0
    1.2392   16.3090    8.3550 H   0  0  0  0  0  0  0  0  0  0  0  0
   -0.8996   18.0038    4.3706 H   0  0  0  0  0  0  0  0  0  0  0  0
    0.6463   18.3039    5.1070 H   0  0  0  0  0  0  0  0  0  0  0  0
    0.5563   18.0652    3.3044 H   0  0  0  0  0  0  0  0  0  0  0  0
    0.4907   10.8148    3.8691 H   0  0  0  0  0  0  0  0  0  0  0  0
   -1.6342   11.2218    2.4690 H   0  0  0  0  0  0  0  0  0  0  0  0
    1.3823   13.0755    4.7752 H   0  0  0  0  0  0  0  0  0  0  0  0
   -3.2723   15.7226    1.9070 H   0  0  0  0  0  0  0  0  0  0  0  0
    6.9581   17.2752    5.0788 H   0  0  0  0  0  0  0  0  0  0  0  0
    7.0763   15.5958    5.7629 H   0  0  0  0  0  0  0  0  0  0  0  0
  2  1  1  0
  3  2  1  0
  4  3  1  0
  5  4  1  0
  6  1  1  0
  6  5  1  0
  6  7  1  0
  1  8  1  0
  9  8  1  0
 10  8  1  0
 12 11  1  0
 13 12  1  0
 14 13  2  0
 14 10  1  0
 15 14  1  0
 15 11  2  0
 16 13  1  0
 17 16  2  0
 18 17  1  0
 18 10  2  0
 19  3  1  0
 20 19  2  0
 21 19  1  0
 22 21  1  0
 23 22  3  0
  1 24  1  6
  2 25  1  0
  2 26  1  0
  4 27  1  0
  4 28  1  0
  5 29  1  0
  5 30  1  0
  6 31  1  6
  7 32  1  0
  7 33  1  0
  7 34  1  0
  9 35  1  0
  9 36  1  0
  9 37  1  0
 11 38  1  0
 12 39  1  0
 15 40  1  0
 17 41  1  0
 21 42  1  0
 21 43  1  0
M  END
