
     RDKit          3D

 61 65  0  0  0  0  0  0  0  0999 V2000
   16.6050   19.3275    2.8007 Cl  0  0  0  0  0  0  0  0  0  0  0  0
   23.0578   18.1564    4.5249 N   0  0  0  0  0  0  0  0  0  0  0  0
   22.2512   17.4579    3.6769 C   0  0  0  0  0  0  0  0  0  0  0  0
   22.8953   16.4508    3.0250 N   0  0  0  0  0  0  0  0  0  0  0  0
   24.2644   17.5590    4.4002 C   0  0  0  0  0  0  0  0  0  0  0  0
   24.1588   16.5308    3.5010 C   0  0  0  0  0  0  0  0  0  0  0  0
   23.6930   20.4151    5.1726 C   0  0  0  0  0  0  0  0  0  0  0  0
   22.6813   19.3080    5.3722 C   0  0  2  0  0  0  0  0  0  0  0  0
   25.4768   17.8640    5.0316 C   0  0  0  0  0  0  0  0  0  0  0  0
   24.2681   20.5775    3.8749 N   0  0  0  0  0  0  0  0  0  0  0  0
   25.2581   15.7237    3.1760 C   0  0  0  0  0  0  0  0  0  0  0  0
   26.5948   17.0713    4.7238 C   0  0  0  0  0  0  0  0  0  0  0  0
   20.8432   17.8137    3.4311 C   0  0  0  0  0  0  0  0  0  0  0  0
   26.4908   16.0127    3.8026 C   0  0  0  0  0  0  0  0  0  0  0  0
   24.2448   21.7986    3.1557 C   0  0  0  0  0  0  0  0  0  0  0  0
   24.0227   21.1910    6.1109 O   0  0  0  0  0  0  0  0  0  0  0  0
   23.0665   22.2150    2.5106 C   0  0  0  0  0  0  0  0  0  0  0  0
   22.5035   18.8731    6.8545 C   0  0  0  0  0  0  0  0  0  0  0  0
   20.4935   18.4526    2.2314 C   0  0  0  0  0  0  0  0  0  0  0  0
   19.8797   17.6495    4.4369 C   0  0  0  0  0  0  0  0  0  0  0  0
   18.2335   18.7453    3.0387 C   0  0  0  0  0  0  0  0  0  0  0  0
   18.5772   18.1178    4.2399 C   0  0  0  0  0  0  0  0  0  0  0  0
   19.1913   18.9161    2.0352 C   0  0  0  0  0  0  0  0  0  0  0  0
   25.4418   22.5025    2.9722 C   0  0  0  0  0  0  0  0  0  0  0  0
   21.7898   21.4380    2.6641 C   0  0  0  0  0  0  0  0  0  0  0  0
   23.1038   23.3485    1.6880 C   0  0  0  0  0  0  0  0  0  0  0  0
   23.8567   18.8425    7.6044 C   0  0  0  0  0  0  0  0  0  0  0  0
   21.5252   19.8148    7.5991 C   0  0  0  0  0  0  0  0  0  0  0  0
   25.4636   23.6358    2.1602 C   0  0  0  0  0  0  0  0  0  0  0  0
   24.2967   24.0554    1.5171 C   0  0  0  0  0  0  0  0  0  0  0  0
   21.3457   19.3960    9.0582 C   0  0  0  0  0  0  0  0  0  0  0  0
   23.6667   18.4309    9.0673 C   0  0  0  0  0  0  0  0  0  0  0  0
   22.6918   19.3709    9.7789 C   0  0  0  0  0  0  0  0  0  0  0  0
   27.7911   17.3228    5.3100 F   0  0  0  0  0  0  0  0  0  0  0  0
   27.5937   15.2666    3.5530 F   0  0  0  0  0  0  0  0  0  0  0  0
   21.7071   19.7142    5.0287 H   0  0  0  0  0  0  0  0  0  0  0  0
   25.5722   18.6916    5.7183 H   0  0  0  0  0  0  0  0  0  0  0  0
   24.7771   19.7914    3.4156 H   0  0  0  0  0  0  0  0  0  0  0  0
   25.1661   14.9096    2.4690 H   0  0  0  0  0  0  0  0  0  0  0  0
   22.0757   17.8484    6.8828 H   0  0  0  0  0  0  0  0  0  0  0  0
   21.2312   18.6049    1.4544 H   0  0  0  0  0  0  0  0  0  0  0  0
   20.1455   17.1850    5.3786 H   0  0  0  0  0  0  0  0  0  0  0  0
   17.8388   17.9948    5.0221 H   0  0  0  0  0  0  0  0  0  0  0  0
   18.9300   19.4105    1.1082 H   0  0  0  0  0  0  0  0  0  0  0  0
   26.3537   22.1626    3.4475 H   0  0  0  0  0  0  0  0  0  0  0  0
   21.4074   21.5473    3.7000 H   0  0  0  0  0  0  0  0  0  0  0  0
   21.9662   20.3625    2.4496 H   0  0  0  0  0  0  0  0  0  0  0  0
   21.0077   21.7997    1.9632 H   0  0  0  0  0  0  0  0  0  0  0  0
   22.2120   23.6882    1.1760 H   0  0  0  0  0  0  0  0  0  0  0  0
   24.5632   18.1261    7.1429 H   0  0  0  0  0  0  0  0  0  0  0  0
   24.3316   19.8482    7.5687 H   0  0  0  0  0  0  0  0  0  0  0  0
   21.8985   20.8621    7.5548 H   0  0  0  0  0  0  0  0  0  0  0  0
   20.5190   19.7910    7.1321 H   0  0  0  0  0  0  0  0  0  0  0  0
   26.3868   24.1826    2.0184 H   0  0  0  0  0  0  0  0  0  0  0  0
   24.3177   24.9311    0.8812 H   0  0  0  0  0  0  0  0  0  0  0  0
   20.6713   20.1178    9.5675 H   0  0  0  0  0  0  0  0  0  0  0  0
   20.8723   18.3904    9.1067 H   0  0  0  0  0  0  0  0  0  0  0  0
   23.2874   17.3863    9.1175 H   0  0  0  0  0  0  0  0  0  0  0  0
   24.6484   18.4628    9.5871 H   0  0  0  0  0  0  0  0  0  0  0  0
   22.5419   19.0213   10.8231 H   0  0  0  0  0  0  0  0  0  0  0  0
   23.1184   20.3976    9.8186 H   0  0  0  0  0  0  0  0  0  0  0  0
  3  2  1  0
  4  3  2  0
  5  2  1  0
  6  4  1  0
  6  5  2  0
  8  7  1  0
  8  2  1  0
  9  5  1  0
 10  7  1  0
 11  6  1  0
 12  9  2  0
 13  3  1  0
 14 11  2  0
 14 12  1  0
 15 10  1  0
 16  7  2  0
 17 15  2  0
 18  8  1  0
 19 13  2  0
 20 13  1  0
 21  1  1  0
 22 21  1  0
 22 20  2  0
 23 21  2  0
 23 19  1  0
 24 15  1  0
 25 17  1  0
 26 17  1  0
 18 27  1  0
 28 18  1  0
 29 24  2  0
 30 29  1  0
 30 26  2  0
 31 28  1  0
 32 27  1  0
 33 32  1  0
 33 31  1  0
 34 12  1  0
 35 14  1  0
  8 36  1  6
  9 37  1  0
 10 38  1  0
 11 39  1  0
 18 40  1  0
 19 41  1  0
 20 42  1  0
 22 43  1  0
 23 44  1  0
 24 45  1  0
 25 46  1  0
 25 47  1  0
 25 48  1  0
 26 49  1  0
 27 50  1  0
 27 51  1  0
 28 52  1  0
 28 53  1  0
 29 54  1  0
 30 55  1  0
 31 56  1  0
 31 57  1  0
 32 58  1  0
 32 59  1  0
 33 60  1  0
 33 61  1  0
M  END
