
     RDKit          3D

 61 65  0  0  0  0  0  0  0  0999 V2000
   16.8198   18.6466    1.2572 Cl  0  0  0  0  0  0  0  0  0  0  0  0
   23.2678   17.8426    3.5407 N   0  0  0  0  0  0  0  0  0  0  0  0
   22.4612   17.1441    2.6928 C   0  0  0  0  0  0  0  0  0  0  0  0
   23.1052   16.1369    2.0409 N   0  0  0  0  0  0  0  0  0  0  0  0
   24.4744   17.2452    3.4160 C   0  0  0  0  0  0  0  0  0  0  0  0
   24.3687   16.2170    2.5169 C   0  0  0  0  0  0  0  0  0  0  0  0
   24.0721   19.9345    4.4903 C   0  0  0  0  0  0  0  0  0  0  0  0
   22.8913   18.9942    4.3880 C   0  0  2  0  0  0  0  0  0  0  0  0
   25.6867   17.5502    4.0474 C   0  0  0  0  0  0  0  0  0  0  0  0
   24.9271   20.0698    3.3537 N   0  0  0  0  0  0  0  0  0  0  0  0
   25.4681   15.4099    2.1919 C   0  0  0  0  0  0  0  0  0  0  0  0
   26.8048   16.7574    3.7397 C   0  0  0  0  0  0  0  0  0  0  0  0
   21.0532   17.4999    2.4470 C   0  0  0  0  0  0  0  0  0  0  0  0
   26.7007   15.6989    2.8184 C   0  0  0  0  0  0  0  0  0  0  0  0
   25.0986   21.2844    2.6435 C   0  0  0  0  0  0  0  0  0  0  0  0
   24.3041   20.5984    5.5375 O   0  0  0  0  0  0  0  0  0  0  0  0
   24.1062   21.7251    1.7497 C   0  0  0  0  0  0  0  0  0  0  0  0
   22.3415   18.5172    5.7622 C   0  0  0  0  0  0  0  0  0  0  0  0
   20.1765   16.5297    1.9369 C   0  0  0  0  0  0  0  0  0  0  0  0
   20.6182   18.8263    2.5825 C   0  0  0  0  0  0  0  0  0  0  0  0
   18.4448   18.2022    1.7153 C   0  0  0  0  0  0  0  0  0  0  0  0
   19.3156   19.1756    2.2141 C   0  0  0  0  0  0  0  0  0  0  0  0
   18.8749   16.8799    1.5732 C   0  0  0  0  0  0  0  0  0  0  0  0
   26.3250   21.9554    2.7302 C   0  0  0  0  0  0  0  0  0  0  0  0
   22.8068   20.9828    1.6161 C   0  0  0  0  0  0  0  0  0  0  0  0
   24.3574   22.8495    0.9526 C   0  0  0  0  0  0  0  0  0  0  0  0
   20.9080   19.0424    6.0145 C   0  0  0  0  0  0  0  0  0  0  0  0
   22.3464   16.9716    5.8593 C   0  0  0  0  0  0  0  0  0  0  0  0
   26.5587   23.0801    1.9399 C   0  0  0  0  0  0  0  0  0  0  0  0
   25.5771   23.5237    1.0507 C   0  0  0  0  0  0  0  0  0  0  0  0
   21.8054   16.4932    7.2066 C   0  0  0  0  0  0  0  0  0  0  0  0
   20.3705   18.5511    7.3618 C   0  0  0  0  0  0  0  0  0  0  0  0
   20.3918   17.0232    7.4363 C   0  0  0  0  0  0  0  0  0  0  0  0
   28.0011   17.0090    4.3258 F   0  0  0  0  0  0  0  0  0  0  0  0
   27.8037   14.9528    2.5689 F   0  0  0  0  0  0  0  0  0  0  0  0
   22.0818   19.5678    3.8902 H   0  0  0  0  0  0  0  0  0  0  0  0
   25.7821   18.3778    4.7342 H   0  0  0  0  0  0  0  0  0  0  0  0
   25.5042   19.2666    3.0226 H   0  0  0  0  0  0  0  0  0  0  0  0
   25.3761   14.5958    1.4848 H   0  0  0  0  0  0  0  0  0  0  0  0
   22.9947   18.9099    6.5701 H   0  0  0  0  0  0  0  0  0  0  0  0
   20.5041   15.5065    1.8073 H   0  0  0  0  0  0  0  0  0  0  0  0
   21.2950   19.5895    2.9466 H   0  0  0  0  0  0  0  0  0  0  0  0
   18.9868   20.2022    2.3143 H   0  0  0  0  0  0  0  0  0  0  0  0
   18.2055   16.1265    1.1779 H   0  0  0  0  0  0  0  0  0  0  0  0
   27.0979   21.5964    3.3987 H   0  0  0  0  0  0  0  0  0  0  0  0
   22.7952   20.4174    0.6614 H   0  0  0  0  0  0  0  0  0  0  0  0
   21.9541   21.6944    1.6314 H   0  0  0  0  0  0  0  0  0  0  0  0
   22.6628   20.2631    2.4499 H   0  0  0  0  0  0  0  0  0  0  0  0
   23.6122   23.2073    0.2528 H   0  0  0  0  0  0  0  0  0  0  0  0
   20.8739   20.1488    6.0224 H   0  0  0  0  0  0  0  0  0  0  0  0
   20.2296   18.6943    5.2039 H   0  0  0  0  0  0  0  0  0  0  0  0
   21.7357   16.5374    5.0366 H   0  0  0  0  0  0  0  0  0  0  0  0
   23.3772   16.5716    5.7669 H   0  0  0  0  0  0  0  0  0  0  0  0
   27.5048   23.6015    2.0065 H   0  0  0  0  0  0  0  0  0  0  0  0
   25.7637   24.3926    0.4327 H   0  0  0  0  0  0  0  0  0  0  0  0
   21.7865   15.3820    7.2215 H   0  0  0  0  0  0  0  0  0  0  0  0
   22.4755   16.8365    8.0257 H   0  0  0  0  0  0  0  0  0  0  0  0
   20.9814   18.9772    8.1881 H   0  0  0  0  0  0  0  0  0  0  0  0
   19.3258   18.9075    7.4912 H   0  0  0  0  0  0  0  0  0  0  0  0
   20.0378   16.7003    8.4389 H   0  0  0  0  0  0  0  0  0  0  0  0
   19.7006   16.5985    6.6749 H   0  0  0  0  0  0  0  0  0  0  0  0
  3  2  1  0
  4  3  2  0
  5  2  1  0
  6  4  1  0
  6  5  2  0
  8  7  1  0
  8  2  1  0
  9  5  1  0
 10  7  1  0
 11  6  1  0
 12  9  2  0
 13  3  1  0
 14 11  2  0
 14 12  1  0
 15 10  1  0
 16  7  2  0
 17 15  2  0
 18  8  1  0
 19 13  2  0
 20 13  1  0
 21  1  1  0
 22 21  1  0
 22 20  2  0
 23 21  2  0
 23 19  1  0
 24 15  1  0
 25 17  1  0
 26 17  1  0
 18 27  1  0
 28 18  1  0
 29 24  2  0
 30 29  1  0
 30 26  2  0
 31 28  1  0
 32 27  1  0
 33 32  1  0
 33 31  1  0
 34 12  1  0
 35 14  1  0
  8 36  1  6
  9 37  1  0
 10 38  1  0
 11 39  1  0
 18 40  1  0
 19 41  1  0
 20 42  1  0
 22 43  1  0
 23 44  1  0
 24 45  1  0
 25 46  1  0
 25 47  1  0
 25 48  1  0
 26 49  1  0
 27 50  1  0
 27 51  1  0
 28 52  1  0
 28 53  1  0
 29 54  1  0
 30 55  1  0
 31 56  1  0
 31 57  1  0
 32 58  1  0
 32 59  1  0
 33 60  1  0
 33 61  1  0
M  END
