
     RDKit          3D

 46 45  0  0  0  0  0  0  0  0999 V2000
   15.3381   38.6303    8.4307 N   0  0  0  0  0  0  0  0  0  0  0  0
   15.2596   38.0304    7.0877 C   0  0  2  0  0  0  0  0  0  0  0  0
    4.8359   37.0839    1.2812 C   0  0  0  0  0  0  0  0  0  0  0  0
   12.7695   38.5461    6.9618 C   0  0  0  0  0  0  0  0  0  0  0  0
    8.5933   40.7412    4.5712 C   0  0  0  0  0  0  0  0  0  0  0  0
   11.8791   39.6972    6.5140 C   0  0  0  0  0  0  0  0  0  0  0  0
    6.3846   35.9132    3.1930 C   0  0  0  0  0  0  0  0  0  0  0  0
    5.2401   37.1222    5.0950 C   0  0  0  0  0  0  0  0  0  0  0  0
   10.4502   39.3584    6.7461 C   0  0  0  0  0  0  0  0  0  0  0  0
    7.6425   38.4587    4.4555 C   0  0  0  0  0  0  0  0  0  0  0  0
    8.3863   39.4222    5.3125 C   0  0  1  0  0  0  0  0  0  0  0  0
    6.4354   36.3366    4.6695 C   0  0  2  0  0  0  0  0  0  0  0  0
   16.5437   38.2465    6.3474 C   0  0  0  0  0  0  0  0  0  0  0  0
   16.5907   38.0941    5.0952 O   0  0  0  0  0  0  0  0  0  0  0  0
    9.6833   38.8688    5.6640 N   0  0  0  0  0  0  0  0  0  0  0  0
    5.3826   38.1728    5.7790 O   0  0  0  0  0  0  0  0  0  0  0  0
    9.9439   39.4713    7.8925 O   0  0  0  0  0  0  0  0  0  0  0  0
    7.0393   38.8277    3.4119 O   0  0  0  0  0  0  0  0  0  0  0  0
    3.9714   36.6680    4.7871 O   0  0  0  0  0  0  0  0  0  0  0  0
    7.5782   37.1449    4.8761 O   0  0  0  0  0  0  0  0  0  0  0  0
    9.2699   40.4595    2.8984 S   0  0  0  0  0  0  0  0  0  0  0  0
    6.4507   37.3589    2.0672 S   0  0  0  0  0  0  0  0  0  0  0  0
   14.1211   38.6337    6.2544 C   0  0  0  0  0  0  0  0  0  0  0  0
   17.6708   38.6598    7.0343 O   0  0  0  0  0  0  0  0  0  0  0  0
   15.1313   39.6552    8.3867 H   0  0  0  0  0  0  0  0  0  0  0  0
   14.6346   38.1769    9.0570 H   0  0  0  0  0  0  0  0  0  0  0  0
   15.1014   36.9328    7.1863 H   0  0  0  0  0  0  0  0  0  0  0  0
    4.8534   36.1402    0.6974 H   0  0  0  0  0  0  0  0  0  0  0  0
    4.0399   37.0359    2.0528 H   0  0  0  0  0  0  0  0  0  0  0  0
    4.6195   37.9274    0.5943 H   0  0  0  0  0  0  0  0  0  0  0  0
   12.2895   37.5722    6.7177 H   0  0  0  0  0  0  0  0  0  0  0  0
   12.8935   38.6171    8.0628 H   0  0  0  0  0  0  0  0  0  0  0  0
    9.3091   41.3724    5.1402 H   0  0  0  0  0  0  0  0  0  0  0  0
    7.6370   41.3014    4.4963 H   0  0  0  0  0  0  0  0  0  0  0  0
   12.0500   39.9191    5.4375 H   0  0  0  0  0  0  0  0  0  0  0  0
   12.1289   40.6140    7.0918 H   0  0  0  0  0  0  0  0  0  0  0  0
    5.4823   35.2894    3.0170 H   0  0  0  0  0  0  0  0  0  0  0  0
    7.2630   35.2708    2.9741 H   0  0  0  0  0  0  0  0  0  0  0  0
    7.7743   39.6287    6.2170 H   0  0  0  0  0  0  0  0  0  0  0  0
    6.4715   35.4287    5.3111 H   0  0  0  0  0  0  0  0  0  0  0  0
   10.0319   38.0206    5.1617 H   0  0  0  0  0  0  0  0  0  0  0  0
    3.1493   37.1816    5.0815 H   0  0  0  0  0  0  0  0  0  0  0  0
    8.9593   41.7682    2.4833 H   0  0  0  0  0  0  0  0  0  0  0  0
   14.3594   39.6986    6.0311 H   0  0  0  0  0  0  0  0  0  0  0  0
   14.0417   38.0944    5.2836 H   0  0  0  0  0  0  0  0  0  0  0  0
   17.8359   38.3634    7.9889 H   0  0  0  0  0  0  0  0  0  0  0  0
  2  1  1  0
  6  4  1  0
  9  6  1  0
 11 10  1  0
 11  5  1  0
 12  8  1  0
 12  7  1  0
 13  2  1  0
 14 13  2  0
 15 11  1  0
 15  9  1  0
 16  8  2  0
 17  9  2  0
 18 10  2  0
 19  8  1  0
 20 12  1  0
 20 10  1  0
 21  5  1  0
 22  3  1  0
 22  7  1  0
 23  4  1  0
 23  2  1  0
 24 13  1  0
  1 25  1  0
  1 26  1  0
  2 27  1  1
  3 28  1  0
  3 29  1  0
  3 30  1  0
  4 31  1  0
  4 32  1  0
  5 33  1  0
  5 34  1  0
  6 35  1  0
  6 36  1  0
  7 37  1  0
  7 38  1  0
 11 39  1  1
 12 40  1  1
 15 41  1  0
 19 42  1  0
 21 43  1  0
 23 44  1  0
 23 45  1  0
 24 46  1  0
M  END
