
     RDKit          3D

 75 78  0  0  0  0  0  0  0  0999 V2000
   21.4623   29.2824   14.0301 N   0  0  0  0  0  0  0  0  0  0  0  0
   21.0401   27.9672   14.3871 C   0  0  0  0  0  0  0  0  0  0  0  0
   19.6973   27.6146   14.2431 C   0  0  0  0  0  0  0  0  0  0  0  0
   19.2652   26.3376   14.5898 C   0  0  0  0  0  0  0  0  0  0  0  0
   20.1695   25.3887   15.0808 C   0  0  0  0  0  0  0  0  0  0  0  0
   21.5236   25.7342   15.2282 C   0  0  0  0  0  0  0  0  0  0  0  0
   21.9564   27.0244   14.8838 C   0  0  0  0  0  0  0  0  0  0  0  0
   19.5342   23.8264   15.6154 S   0  0  0  0  0  0  0  0  0  0  0  0
   18.3620   23.4871   14.7328 O   0  0  0  0  0  0  0  0  0  0  0  0
   20.5801   22.7511   15.4540 O   0  0  0  0  0  0  0  0  0  0  0  0
   19.0153   23.8679   17.2938 N   0  0  0  0  0  0  0  0  0  0  0  0
   20.1068   24.2541   18.2167 C   0  0  0  0  0  0  0  0  0  0  0  0
   20.2572   23.2451   19.3820 C   0  0  0  0  0  0  0  0  0  0  0  0
   21.3945   23.6435   20.3336 C   0  0  0  0  0  0  0  0  0  0  0  0
   18.9426   23.1554   20.1672 C   0  0  0  0  0  0  0  0  0  0  0  0
   17.7248   24.5713   17.5021 C   0  0  0  0  0  0  0  0  0  0  0  0
   16.6800   23.5838   18.0776 C   0  0  1  0  0  0  0  0  0  0  0  0
   15.8768   24.1843   19.0670 O   0  0  0  0  0  0  0  0  0  0  0  0
   15.8210   22.8636   16.9953 C   0  0  1  0  0  0  0  0  0  0  0  0
   15.1463   21.7509   17.6359 N   0  0  0  0  0  0  0  0  0  0  0  0
   15.2173   20.4118   17.1789 C   0  0  0  0  0  0  0  0  0  0  0  0
   15.8573   20.0973   16.1346 O   0  0  0  0  0  0  0  0  0  0  0  0
   14.5562   19.4613   17.9366 O   0  0  0  0  0  0  0  0  0  0  0  0
   14.3702   18.1167   17.5255 C   0  0  1  0  0  0  0  0  0  0  0  0
   14.7596   17.2442   18.6913 C   0  0  0  0  0  0  0  0  0  0  0  0
   13.6818   17.2770   19.5974 O   0  0  0  0  0  0  0  0  0  0  0  0
   12.5094   17.4505   18.8211 C   0  0  1  0  0  0  0  0  0  0  0  0
   11.7019   18.4808   19.3619 O   0  0  0  0  0  0  0  0  0  0  0  0
   11.5724   19.4875   18.3822 C   0  0  0  0  0  0  0  0  0  0  0  0
   11.9605   18.9152   17.0332 C   0  0  0  0  0  0  0  0  0  0  0  0
   12.8932   17.7900   17.3996 C   0  0  1  0  0  0  0  0  0  0  0  0
   14.7456   23.7333   16.2976 C   0  0  0  0  0  0  0  0  0  0  0  0
   14.4001   21.6989   14.8022 C   0  0  0  0  0  0  0  0  0  0  0  0
   13.6353   20.9369   13.9100 C   0  0  0  0  0  0  0  0  0  0  0  0
   12.3756   21.3835   13.5076 C   0  0  0  0  0  0  0  0  0  0  0  0
   11.8761   22.5876   14.0086 C   0  0  0  0  0  0  0  0  0  0  0  0
   12.6358   23.3487   14.9095 C   0  0  0  0  0  0  0  0  0  0  0  0
   13.9171   22.9201   15.3063 C   0  0  0  0  0  0  0  0  0  0  0  0
   20.7821   29.9843   13.6618 H   0  0  0  0  0  0  0  0  0  0  0  0
   22.4624   29.5660   14.1315 H   0  0  0  0  0  0  0  0  0  0  0  0
   18.9803   28.3334   13.8664 H   0  0  0  0  0  0  0  0  0  0  0  0
   18.2155   26.0957   14.4846 H   0  0  0  0  0  0  0  0  0  0  0  0
   22.2320   25.0184   15.6244 H   0  0  0  0  0  0  0  0  0  0  0  0
   22.9995   27.2878   15.0048 H   0  0  0  0  0  0  0  0  0  0  0  0
   21.0774   24.2846   17.6740 H   0  0  0  0  0  0  0  0  0  0  0  0
   19.9409   25.2811   18.6111 H   0  0  0  0  0  0  0  0  0  0  0  0
   20.4775   22.2399   18.9621 H   0  0  0  0  0  0  0  0  0  0  0  0
   21.8742   22.7415   20.7707 H   0  0  0  0  0  0  0  0  0  0  0  0
   22.1630   24.2326   19.7891 H   0  0  0  0  0  0  0  0  0  0  0  0
   21.0058   24.2754   21.1597 H   0  0  0  0  0  0  0  0  0  0  0  0
   18.6840   24.1373   20.6194 H   0  0  0  0  0  0  0  0  0  0  0  0
   19.0298   22.3996   20.9768 H   0  0  0  0  0  0  0  0  0  0  0  0
   18.1162   22.8426   19.4939 H   0  0  0  0  0  0  0  0  0  0  0  0
   17.3412   25.0186   16.5618 H   0  0  0  0  0  0  0  0  0  0  0  0
   17.8384   25.4129   18.2204 H   0  0  0  0  0  0  0  0  0  0  0  0
   17.2621   22.7915   18.5958 H   0  0  0  0  0  0  0  0  0  0  0  0
   15.2710   24.8250   18.6119 H   0  0  0  0  0  0  0  0  0  0  0  0
   16.5090   22.4783   16.2138 H   0  0  0  0  0  0  0  0  0  0  0  0
   14.5809   21.9417   18.4948 H   0  0  0  0  0  0  0  0  0  0  0  0
   14.9536   17.8597   16.6137 H   0  0  0  0  0  0  0  0  0  0  0  0
   15.6827   17.6188   19.1839 H   0  0  0  0  0  0  0  0  0  0  0  0
   14.9345   16.1970   18.3563 H   0  0  0  0  0  0  0  0  0  0  0  0
   11.9259   16.5037   18.8353 H   0  0  0  0  0  0  0  0  0  0  0  0
   12.2282   20.3438   18.6482 H   0  0  0  0  0  0  0  0  0  0  0  0
   10.5227   19.8493   18.3583 H   0  0  0  0  0  0  0  0  0  0  0  0
   11.0572   18.5024   16.5321 H   0  0  0  0  0  0  0  0  0  0  0  0
   12.4294   19.6693   16.3674 H   0  0  0  0  0  0  0  0  0  0  0  0
   12.7520   16.9158   16.7237 H   0  0  0  0  0  0  0  0  0  0  0  0
   15.2141   24.5862   15.7688 H   0  0  0  0  0  0  0  0  0  0  0  0
   14.0707   24.1739   17.0625 H   0  0  0  0  0  0  0  0  0  0  0  0
   15.3658   21.3246   15.1030 H   0  0  0  0  0  0  0  0  0  0  0  0
   14.0215   19.9992   13.5318 H   0  0  0  0  0  0  0  0  0  0  0  0
   11.7847   20.7952   12.8177 H   0  0  0  0  0  0  0  0  0  0  0  0
   10.8959   22.9315   13.7052 H   0  0  0  0  0  0  0  0  0  0  0  0
   12.2253   24.2733   15.2953 H   0  0  0  0  0  0  0  0  0  0  0  0
  2  1  1  0
  3  2  2  0
  4  3  1  0
  5  4  2  0
  6  5  1  0
  7  6  2  0
  7  2  1  0
  8  5  1  0
  9  8  2  0
 10  8  2  0
  8 11  1  0
 12 11  1  0
 13 12  1  0
 13 14  1  0
 15 13  1  0
 16 11  1  0
 17 16  1  0
 17 18  1  0
 19 17  1  0
 20 19  1  0
 21 20  1  0
 22 21  2  0
 23 21  1  0
 24 23  1  0
 25 24  1  0
 26 25  1  0
 27 26  1  0
 28 27  1  0
 29 28  1  0
 30 29  1  0
 31 30  1  0
 31 27  1  0
 31 24  1  0
 19 32  1  0
 34 33  2  0
 35 34  1  0
 36 35  2  0
 37 36  1  0
 38 37  2  0
 38 33  1  0
 38 32  1  0
  1 39  1  0
  1 40  1  0
  3 41  1  0
  4 42  1  0
  6 43  1  0
  7 44  1  0
 12 45  1  0
 12 46  1  0
 13 47  1  0
 14 48  1  0
 14 49  1  0
 14 50  1  0
 15 51  1  0
 15 52  1  0
 15 53  1  0
 16 54  1  0
 16 55  1  0
 17 56  1  1
 18 57  1  0
 19 58  1  6
 20 59  1  0
 24 60  1  6
 25 61  1  0
 25 62  1  0
 27 63  1  6
 29 64  1  0
 29 65  1  0
 30 66  1  0
 30 67  1  0
 31 68  1  6
 32 69  1  0
 32 70  1  0
 33 71  1  0
 34 72  1  0
 35 73  1  0
 36 74  1  0
 37 75  1  0
M  END
