
     RDKit          3D

 19 18  0  0  0  0  0  0  0  0999 V2000
    8.2014   -7.4452    7.3213 N   0  0  0  0  0  0  0  0  0  0  0  0
    9.3568   -7.7251    6.4571 C   0  0  1  0  0  0  0  0  0  0  0  0
    9.1315   -8.9363    5.5977 C   0  0  0  0  0  0  0  0  0  0  0  0
    7.9610   -9.2760    5.2806 O   0  0  0  0  0  0  0  0  0  0  0  0
    9.6850   -6.5067    5.5678 C   0  0  0  0  0  0  0  0  0  0  0  0
   11.1517   -6.4819    5.1184 C   0  0  0  0  0  0  0  0  0  0  0  0
   11.8833   -5.3180    5.7169 C   0  0  0  0  0  0  0  0  0  0  0  0
   13.1154   -5.1640    5.5092 O   0  0  0  0  0  0  0  0  0  0  0  0
   11.1886   -4.3803    6.4596 O   0  0  0  0  0  0  0  0  0  0  0  0
   10.2008   -9.7042    5.1781 O   0  0  0  0  0  0  0  0  0  0  0  0
    7.9518   -8.3159    7.8450 H   0  0  0  0  0  0  0  0  0  0  0  0
    7.3776   -7.1788    6.7336 H   0  0  0  0  0  0  0  0  0  0  0  0
   10.2267   -7.9587    7.1079 H   0  0  0  0  0  0  0  0  0  0  0  0
    9.0427   -6.5146    4.6586 H   0  0  0  0  0  0  0  0  0  0  0  0
    9.4587   -5.5683    6.1201 H   0  0  0  0  0  0  0  0  0  0  0  0
   11.2067   -6.4394    4.0087 H   0  0  0  0  0  0  0  0  0  0  0  0
   11.6475   -7.4208    5.4452 H   0  0  0  0  0  0  0  0  0  0  0  0
   10.3837   -3.9024    6.0723 H   0  0  0  0  0  0  0  0  0  0  0  0
   10.1859  -10.7129    5.2710 H   0  0  0  0  0  0  0  0  0  0  0  0
  2  1  1  0
  3  2  1  0
  4  3  2  0
  5  2  1  0
  6  5  1  0
  7  6  1  0
  8  7  2  0
  9  7  1  0
 10  3  1  0
  1 11  1  0
  1 12  1  0
  2 13  1  1
  5 14  1  0
  5 15  1  0
  6 16  1  0
  6 17  1  0
  9 18  1  0
 10 19  1  0
M  END
