
     RDKit          3D

 19 18  0  0  0  0  0  0  0  0999 V2000
   24.9793    7.2276   11.6510 N   0  0  0  0  0  0  0  0  0  0  0  0
   23.8101    7.9387   11.1205 C   0  0  1  0  0  0  0  0  0  0  0  0
   24.2145    9.2662   10.5562 C   0  0  0  0  0  0  0  0  0  0  0  0
   23.3516   10.1667   10.3829 O   0  0  0  0  0  0  0  0  0  0  0  0
   23.0729    7.1037   10.0443 C   0  0  0  0  0  0  0  0  0  0  0  0
   22.3368    5.8881   10.6239 C   0  0  0  0  0  0  0  0  0  0  0  0
   21.9178    4.9490    9.5367 C   0  0  0  0  0  0  0  0  0  0  0  0
   21.5416    5.3963    8.4206 O   0  0  0  0  0  0  0  0  0  0  0  0
   22.0352    3.5842    9.7326 O   0  0  0  0  0  0  0  0  0  0  0  0
   25.5294    9.5040   10.2013 O   0  0  0  0  0  0  0  0  0  0  0  0
   24.6963    6.2572   11.9172 H   0  0  0  0  0  0  0  0  0  0  0  0
   25.7154    7.1523   10.9112 H   0  0  0  0  0  0  0  0  0  0  0  0
   23.1283    8.1670   11.9675 H   0  0  0  0  0  0  0  0  0  0  0  0
   23.7916    6.7600    9.2686 H   0  0  0  0  0  0  0  0  0  0  0  0
   22.3218    7.7442    9.5296 H   0  0  0  0  0  0  0  0  0  0  0  0
   23.0155    5.3510   11.3204 H   0  0  0  0  0  0  0  0  0  0  0  0
   21.4522    6.2181   11.2096 H   0  0  0  0  0  0  0  0  0  0  0  0
   21.3630    2.9417    9.3308 H   0  0  0  0  0  0  0  0  0  0  0  0
   26.2738    8.8972   10.5239 H   0  0  0  0  0  0  0  0  0  0  0  0
  2  1  1  0
  3  2  1  0
  4  3  2  0
  5  2  1  0
  6  5  1  0
  7  6  1  0
  8  7  2  0
  9  7  1  0
 10  3  1  0
  1 11  1  0
  1 12  1  0
  2 13  1  1
  5 14  1  0
  5 15  1  0
  6 16  1  0
  6 17  1  0
  9 18  1  0
 10 19  1  0
M  END
