
     RDKit          3D

 19 18  0  0  0  0  0  0  0  0999 V2000
   24.8146    6.4564   11.6315 N   0  0  0  0  0  0  0  0  0  0  0  0
   23.6455    7.1675   11.1009 C   0  0  1  0  0  0  0  0  0  0  0  0
   23.9462    8.6264   10.9411 C   0  0  0  0  0  0  0  0  0  0  0  0
   23.0049    9.4574   10.8477 O   0  0  0  0  0  0  0  0  0  0  0  0
   23.1757    6.5687    9.7519 C   0  0  0  0  0  0  0  0  0  0  0  0
   22.5326    5.1830    9.8987 C   0  0  0  0  0  0  0  0  0  0  0  0
   21.1934    5.1422    9.2321 C   0  0  0  0  0  0  0  0  0  0  0  0
   20.4816    6.1800    9.1719 O   0  0  0  0  0  0  0  0  0  0  0  0
   20.7821    3.9820    8.5999 O   0  0  0  0  0  0  0  0  0  0  0  0
   25.2548    9.0672   10.8724 O   0  0  0  0  0  0  0  0  0  0  0  0
   24.5317    5.4859   11.8976 H   0  0  0  0  0  0  0  0  0  0  0  0
   25.5507    6.3811   10.8916 H   0  0  0  0  0  0  0  0  0  0  0  0
   22.8315    7.1089   11.8549 H   0  0  0  0  0  0  0  0  0  0  0  0
   24.0314    6.5014    9.0450 H   0  0  0  0  0  0  0  0  0  0  0  0
   22.4242    7.2465    9.2881 H   0  0  0  0  0  0  0  0  0  0  0  0
   23.1923    4.4246    9.4255 H   0  0  0  0  0  0  0  0  0  0  0  0
   22.4360    4.9162   10.9730 H   0  0  0  0  0  0  0  0  0  0  0  0
   21.3172    3.1261    8.6849 H   0  0  0  0  0  0  0  0  0  0  0  0
   25.9738    8.4987   10.4410 H   0  0  0  0  0  0  0  0  0  0  0  0
  2  1  1  0
  3  2  1  0
  4  3  2  0
  5  2  1  0
  6  5  1  0
  7  6  1  0
  8  7  2  0
  9  7  1  0
 10  3  1  0
  1 11  1  0
  1 12  1  0
  2 13  1  1
  5 14  1  0
  5 15  1  0
  6 16  1  0
  6 17  1  0
  9 18  1  0
 10 19  1  0
M  END
