
     RDKit          3D

 15 16  0  0  0  0  0  0  0  0999 V2000
   15.2539    0.5241   54.8214 N   0  0  0  0  0  0  0  0  0  0  0  0
   15.1041    1.2250   53.6540 C   0  0  0  0  0  0  0  0  0  0  0  0
   15.2158    2.5862   53.6342 N   0  0  0  0  0  0  0  0  0  0  0  0
   15.4796    3.2104   54.8067 C   0  0  0  0  0  0  0  0  0  0  0  0
   15.6332    2.5461   55.9767 C   0  0  0  0  0  0  0  0  0  0  0  0
   15.5183    1.1565   55.9996 C   0  0  0  0  0  0  0  0  0  0  0  0
   15.6637    0.4005   57.1952 N   0  0  0  0  0  0  0  0  0  0  0  0
   15.8843    3.4136   56.9790 N   0  0  0  0  0  0  0  0  0  0  0  0
   15.8710    4.6165   56.3419 C   0  0  0  0  0  0  0  0  0  0  0  0
   15.6254    4.5233   55.0100 N   0  0  0  0  0  0  0  0  0  0  0  0
   14.8944    0.6936   52.7360 H   0  0  0  0  0  0  0  0  0  0  0  0
   16.4012   -0.3341   57.2786 H   0  0  0  0  0  0  0  0  0  0  0  0
   15.0303    0.5732   58.0071 H   0  0  0  0  0  0  0  0  0  0  0  0
   16.0399    5.5568   56.8498 H   0  0  0  0  0  0  0  0  0  0  0  0
   15.5644    5.2962   54.3109 H   0  0  0  0  0  0  0  0  0  0  0  0
  2  1  2  0
  3  2  1  0
  4  3  2  0
  5  4  1  0
  6  5  2  0
  6  1  1  0
  7  6  1  0
  8  5  1  0
  9  8  2  0
 10  9  1  0
 10  4  1  0
  2 11  1  0
  7 12  1  0
  7 13  1  0
  9 14  1  0
 10 15  1  0
M  END
