
     RDKit          3D

 32 33  0  0  0  0  0  0  0  0999 V2000
   13.5149    3.6451   49.2245 N   0  0  0  0  0  0  0  0  0  0  0  0
   13.5572    3.2540   50.5238 C   0  0  0  0  0  0  0  0  0  0  0  0
   12.4319    2.6022   51.0968 N   0  0  0  0  0  0  0  0  0  0  0  0
   14.6722    3.4818   51.2732 N   0  0  0  0  0  0  0  0  0  0  0  0
   15.7574    4.1012   50.7367 C   0  0  0  0  0  0  0  0  0  0  0  0
   15.7201    4.5269   49.4092 C   0  0  0  0  0  0  0  0  0  0  0  0
   16.7830    4.2993   51.4411 O   0  0  0  0  0  0  0  0  0  0  0  0
   16.7882    5.2670   48.8184 N   0  0  0  0  0  0  0  0  0  0  0  0
   16.4711    6.1402   47.6859 C   0  0  2  0  0  0  0  0  0  0  0  0
   15.6410    5.3527   46.6490 C   0  0  0  0  0  0  0  0  0  0  0  0
   14.5720    4.2733   48.6575 C   0  0  0  0  0  0  0  0  0  0  0  0
   14.5049    4.7063   47.2991 N   0  0  0  0  0  0  0  0  0  0  0  0
   17.7497    6.7562   47.0879 C   0  0  1  0  0  0  0  0  0  0  0  0
   18.1924    5.9546   46.0196 O   0  0  0  0  0  0  0  0  0  0  0  0
   17.5145    8.2022   46.5923 C   0  0  1  0  0  0  0  0  0  0  0  0
   18.5346    8.5721   45.6937 O   0  0  0  0  0  0  0  0  0  0  0  0
   16.1512    8.3390   45.9125 C   0  0  0  0  0  0  0  0  0  0  0  0
   11.6583    3.1534   51.5304 H   0  0  0  0  0  0  0  0  0  0  0  0
   12.3663    1.5601   51.0902 H   0  0  0  0  0  0  0  0  0  0  0  0
   14.6979    3.1728   52.2717 H   0  0  0  0  0  0  0  0  0  0  0  0
   17.7191    5.3196   49.2910 H   0  0  0  0  0  0  0  0  0  0  0  0
   15.8336    6.9691   48.0683 H   0  0  0  0  0  0  0  0  0  0  0  0
   15.2449    6.0306   45.8647 H   0  0  0  0  0  0  0  0  0  0  0  0
   16.2699    4.5739   46.1666 H   0  0  0  0  0  0  0  0  0  0  0  0
   13.6492    4.4987   46.7366 H   0  0  0  0  0  0  0  0  0  0  0  0
   18.5197    6.7919   47.8974 H   0  0  0  0  0  0  0  0  0  0  0  0
   17.8384    6.3512   45.1813 H   0  0  0  0  0  0  0  0  0  0  0  0
   17.5072    8.8920   47.4676 H   0  0  0  0  0  0  0  0  0  0  0  0
   18.1317    8.5741   44.7862 H   0  0  0  0  0  0  0  0  0  0  0  0
   16.0921    7.6724   45.0257 H   0  0  0  0  0  0  0  0  0  0  0  0
   15.9987    9.3874   45.5791 H   0  0  0  0  0  0  0  0  0  0  0  0
   15.3353    8.0768   46.6191 H   0  0  0  0  0  0  0  0  0  0  0  0
  2  1  2  0
  3  2  1  0
  4  2  1  0
  5  4  1  0
  6  5  1  0
  7  5  2  0
  8  6  1  0
  9  8  1  0
  9 10  1  0
 11  1  1  0
 11  6  2  0
 12 11  1  0
 12 10  1  0
 13  9  1  0
 13 14  1  0
 15 13  1  0
 16 15  1  0
 15 17  1  0
  3 18  1  0
  3 19  1  0
  4 20  1  0
  8 21  1  0
  9 22  1  1
 10 23  1  0
 10 24  1  0
 12 25  1  0
 13 26  1  1
 14 27  1  0
 15 28  1  1
 16 29  1  0
 17 30  1  0
 17 31  1  0
 17 32  1  0
M  END
