
     RDKit          3D

 11 10  0  0  0  0  0  0  0  0999 V2000
    8.9862   23.7333   42.2456 C   0  0  0  0  0  0  0  0  0  0  0  0
    9.6205   24.4109   43.0963 O   0  0  0  0  0  0  0  0  0  0  0  0
    8.4249   24.3782   41.1145 N   0  0  0  0  0  0  0  0  0  0  0  0
    8.8251   22.3255   42.4047 N   0  0  0  0  0  0  0  0  0  0  0  0
    9.9373   21.4581   42.7616 C   0  0  0  0  0  0  0  0  0  0  0  0
    7.6350   25.0523   41.2230 H   0  0  0  0  0  0  0  0  0  0  0  0
    8.7970   24.1850   40.1582 H   0  0  0  0  0  0  0  0  0  0  0  0
    7.8816   21.8997   42.2620 H   0  0  0  0  0  0  0  0  0  0  0  0
   10.6667   21.4174   41.9254 H   0  0  0  0  0  0  0  0  0  0  0  0
   10.4487   21.8522   43.6651 H   0  0  0  0  0  0  0  0  0  0  0  0
    9.5630   20.4355   42.9784 H   0  0  0  0  0  0  0  0  0  0  0  0
  2  1  2  0
  3  1  1  0
  4  1  1  0
  5  4  1  0
  3  6  1  0
  3  7  1  0
  4  8  1  0
  5  9  1  0
  5 10  1  0
  5 11  1  0
M  END
