
     RDKit          3D

 19 19  0  0  0  0  0  0  0  0999 V2000
    9.6747  -23.2720   17.9078 C   0  0  0  0  0  0  0  0  0  0  0  0
   10.5343  -23.4728   20.2483 C   0  0  0  0  0  0  0  0  0  0  0  0
    9.3536  -23.6117   19.3350 C   0  0  0  0  0  0  0  0  0  0  0  0
   10.2242  -24.2362   17.0640 C   0  0  0  0  0  0  0  0  0  0  0  0
    9.4333  -21.9832   17.4185 C   0  0  0  0  0  0  0  0  0  0  0  0
   10.5558  -23.9142   15.7502 C   0  0  0  0  0  0  0  0  0  0  0  0
    9.7456  -21.6555   16.1005 C   0  0  0  0  0  0  0  0  0  0  0  0
   10.3255  -22.6152   15.2567 C   0  0  0  0  0  0  0  0  0  0  0  0
   10.6639  -22.2694   13.9478 O   0  0  0  0  0  0  0  0  0  0  0  0
   11.2587  -25.1695   14.7485 Cl  0  0  0  0  0  0  0  0  0  0  0  0
   11.5380  -22.7686   19.9443 O   0  0  0  0  0  0  0  0  0  0  0  0
   10.5137  -24.1626   21.4477 O   0  0  0  0  0  0  0  0  0  0  0  0
    8.5324  -22.9634   19.7108 H   0  0  0  0  0  0  0  0  0  0  0  0
    8.9858  -24.6589   19.3909 H   0  0  0  0  0  0  0  0  0  0  0  0
   10.4065  -25.2394   17.4305 H   0  0  0  0  0  0  0  0  0  0  0  0
    8.9999  -21.2278   18.0625 H   0  0  0  0  0  0  0  0  0  0  0  0
    9.5563  -20.6543   15.7347 H   0  0  0  0  0  0  0  0  0  0  0  0
   11.6197  -22.1331   13.6446 H   0  0  0  0  0  0  0  0  0  0  0  0
   10.8343  -25.1221   21.5012 H   0  0  0  0  0  0  0  0  0  0  0  0
  3  2  1  0
  3  1  1  0
  4  1  2  0
  5  1  1  0
  6  4  1  0
  7  5  2  0
  8  6  2  0
  8  7  1  0
  9  8  1  0
 10  6  1  0
 11  2  2  0
 12  2  1  0
  3 13  1  0
  3 14  1  0
  4 15  1  0
  5 16  1  0
  7 17  1  0
  9 18  1  0
 12 19  1  0
M  END
