
     RDKit          3D

 19 19  0  0  0  0  0  0  0  0999 V2000
   11.0132  -22.7056   18.3364 C   0  0  0  0  0  0  0  0  0  0  0  0
    9.9028  -23.6876   20.3514 C   0  0  0  0  0  0  0  0  0  0  0  0
   11.1592  -23.1056   19.7766 C   0  0  0  0  0  0  0  0  0  0  0  0
   10.9394  -23.6799   17.3420 C   0  0  0  0  0  0  0  0  0  0  0  0
   10.9599  -21.3526   17.9826 C   0  0  0  0  0  0  0  0  0  0  0  0
   10.8397  -23.3115   16.0026 C   0  0  0  0  0  0  0  0  0  0  0  0
   10.8429  -20.9735   16.6467 C   0  0  0  0  0  0  0  0  0  0  0  0
   10.7974  -21.9509   15.6407 C   0  0  0  0  0  0  0  0  0  0  0  0
   10.7118  -21.5617   14.3034 O   0  0  0  0  0  0  0  0  0  0  0  0
   10.7679  -24.5871   14.8023 Cl  0  0  0  0  0  0  0  0  0  0  0  0
    9.4129  -24.7732   19.9302 O   0  0  0  0  0  0  0  0  0  0  0  0
    9.2632  -22.9876   21.3591 O   0  0  0  0  0  0  0  0  0  0  0  0
   11.9808  -23.8458   19.8904 H   0  0  0  0  0  0  0  0  0  0  0  0
   11.4437  -22.2163   20.3792 H   0  0  0  0  0  0  0  0  0  0  0  0
   10.9707  -24.7302   17.6063 H   0  0  0  0  0  0  0  0  0  0  0  0
   11.0089  -20.5867   18.7470 H   0  0  0  0  0  0  0  0  0  0  0  0
   10.8051  -19.9235   16.3857 H   0  0  0  0  0  0  0  0  0  0  0  0
   11.5192  -21.4967   13.6967 H   0  0  0  0  0  0  0  0  0  0  0  0
    9.6108  -23.0117   22.3104 H   0  0  0  0  0  0  0  0  0  0  0  0
  3  2  1  0
  3  1  1  0
  4  1  2  0
  5  1  1  0
  6  4  1  0
  7  5  2  0
  8  6  2  0
  8  7  1  0
  9  8  1  0
 10  6  1  0
 11  2  2  0
 12  2  1  0
  3 13  1  0
  3 14  1  0
  4 15  1  0
  5 16  1  0
  7 17  1  0
  9 18  1  0
 12 19  1  0
M  END
