
     RDKit          3D

 41 44  0  0  0  0  0  0  0  0999 V2000
    8.6663  -12.3480    1.6734 C   0  0  0  0  0  0  0  0  0  0  0  0
    7.8699  -11.9051    0.6497 N   0  0  0  0  0  0  0  0  0  0  0  0
    9.0885  -13.5398    1.6832 O   0  0  0  0  0  0  0  0  0  0  0  0
    5.0606  -12.5246    1.3645 S   0  0  0  0  0  0  0  0  0  0  0  0
    8.9848  -11.4699    2.7229 C   0  0  0  0  0  0  0  0  0  0  0  0
    7.3824  -10.6664    0.6421 N   0  0  0  0  0  0  0  0  0  0  0  0
    4.7331   -7.8911    2.2670 O   0  0  0  0  0  0  0  0  0  0  0  0
    8.4687  -10.1495    2.6962 C   0  0  0  0  0  0  0  0  0  0  0  0
    5.0317  -13.6978   -0.8762 N   0  0  0  0  0  0  0  0  0  0  0  0
    5.0438   -9.0746    0.3398 O   0  0  0  0  0  0  0  0  0  0  0  0
    7.6595   -9.7635    1.6046 C   0  0  0  0  0  0  0  0  0  0  0  0
    9.7994  -11.8784    3.7953 C   0  0  0  0  0  0  0  0  0  0  0  0
   10.1037  -10.9851    4.8228 C   0  0  0  0  0  0  0  0  0  0  0  0
    9.5945   -9.6860    4.8013 C   0  0  0  0  0  0  0  0  0  0  0  0
    8.7782   -9.2675    3.7513 C   0  0  0  0  0  0  0  0  0  0  0  0
    7.3323  -12.8166   -0.3527 C   0  0  0  0  0  0  0  0  0  0  0  0
    5.8704  -13.0304   -0.0527 C   0  0  0  0  0  0  0  0  0  0  0  0
    3.5933  -13.1837    0.8858 C   0  0  0  0  0  0  0  0  0  0  0  0
    3.7739  -13.7775   -0.3534 C   0  0  0  0  0  0  0  0  0  0  0  0
    2.3640  -13.1981    1.5496 C   0  0  0  0  0  0  0  0  0  0  0  0
    1.2816  -13.8308    0.9198 C   0  0  0  0  0  0  0  0  0  0  0  0
    1.4399  -14.4245   -0.3540 C   0  0  0  0  0  0  0  0  0  0  0  0
    2.7055  -14.4112   -0.9828 C   0  0  0  0  0  0  0  0  0  0  0  0
    7.0464   -8.3968    1.4473 C   0  0  0  0  0  0  0  0  0  0  0  0
    5.5572   -8.4624    1.3116 C   0  0  0  0  0  0  0  0  0  0  0  0
    0.2643  -15.0753   -1.0313 C   0  0  0  0  0  0  0  0  0  0  0  0
   -0.5299  -15.7174   -0.1097 F   0  0  0  0  0  0  0  0  0  0  0  0
    0.6988  -15.9835   -1.9689 F   0  0  0  0  0  0  0  0  0  0  0  0
   -0.5322  -14.1410   -1.6487 F   0  0  0  0  0  0  0  0  0  0  0  0
    3.7248   -7.9449    2.1852 H   0  0  0  0  0  0  0  0  0  0  0  0
   10.2053  -12.8816    3.8401 H   0  0  0  0  0  0  0  0  0  0  0  0
   10.7337  -11.3026    5.6437 H   0  0  0  0  0  0  0  0  0  0  0  0
    9.8296   -9.0025    5.6070 H   0  0  0  0  0  0  0  0  0  0  0  0
    8.3906   -8.2590    3.7822 H   0  0  0  0  0  0  0  0  0  0  0  0
    7.4424  -12.3763   -1.3679 H   0  0  0  0  0  0  0  0  0  0  0  0
    7.8669  -13.7905   -0.3453 H   0  0  0  0  0  0  0  0  0  0  0  0
    2.2496  -12.7349    2.5209 H   0  0  0  0  0  0  0  0  0  0  0  0
    0.3195  -13.8507    1.4163 H   0  0  0  0  0  0  0  0  0  0  0  0
    2.8616  -14.8765   -1.9478 H   0  0  0  0  0  0  0  0  0  0  0  0
    7.3298   -7.7401    2.2963 H   0  0  0  0  0  0  0  0  0  0  0  0
    7.4526   -7.9128    0.5327 H   0  0  0  0  0  0  0  0  0  0  0  0
  2  1  1  0
  3  1  2  0
  5  1  1  0
  6  2  1  0
  8  5  2  0
 11  8  1  0
 11  6  2  0
 12  5  1  0
 13 12  2  0
 14 13  1  0
 15 14  2  0
 15  8  1  0
 16  2  1  0
 17  9  2  0
 17  4  1  0
 17 16  1  0
 18  4  1  0
 19 18  2  0
 19  9  1  0
 20 18  1  0
 21 20  2  0
 22 21  1  0
 23 22  2  0
 23 19  1  0
 24 11  1  0
 25 10  2  0
 25  7  1  0
 25 24  1  0
 26 22  1  0
 26 27  1  0
 28 26  1  0
 29 26  1  0
  7 30  1  0
 12 31  1  0
 13 32  1  0
 14 33  1  0
 15 34  1  0
 16 35  1  0
 16 36  1  0
 20 37  1  0
 21 38  1  0
 23 39  1  0
 24 40  1  0
 24 41  1  0
M  END
