
     RDKit          3D

 33 34  0  0  0  0  0  0  0  0999 V2000
   41.0678   29.8570   97.2860 P   0  0  0  0  0  0  0  0  0  0  0  0
   40.8392   30.1434   99.8077 C   0  0  0  0  0  0  0  0  0  0  0  0
   40.2993   30.5830   98.5886 O   0  0  0  0  0  0  0  0  0  0  0  0
   40.1250   30.9271  100.9205 C   0  0  1  0  0  0  0  0  0  0  0  0
   40.7763   30.6875  102.1496 O   0  0  0  0  0  0  0  0  0  0  0  0
   40.1399   32.4353  100.6536 C   0  0  1  0  0  0  0  0  0  0  0  0
   38.9755   33.0252  101.1687 O   0  0  0  0  0  0  0  0  0  0  0  0
   41.3430   32.9110  101.4262 C   0  0  0  0  0  0  0  0  0  0  0  0
   41.5559   31.8234  102.4765 C   0  0  2  0  0  0  0  0  0  0  0  0
   42.9917   31.4765  102.5959 N   0  0  0  0  0  0  0  0  0  0  0  0
   43.7583   32.0803  103.5659 C   0  0  0  0  0  0  0  0  0  0  0  0
   43.2385   32.9050  104.3687 O   0  0  0  0  0  0  0  0  0  0  0  0
   45.0890   31.7904  103.6719 N   0  0  0  0  0  0  0  0  0  0  0  0
   45.6872   30.9105  102.8222 C   0  0  0  0  0  0  0  0  0  0  0  0
   46.9190   30.6581  102.9345 O   0  0  0  0  0  0  0  0  0  0  0  0
   44.9286   30.2799  101.8346 C   0  0  0  0  0  0  0  0  0  0  0  0
   43.5764   30.5673  101.7464 C   0  0  0  0  0  0  0  0  0  0  0  0
   41.5064   30.9597   96.3504 O   0  0  0  0  0  0  0  0  0  0  0  0
   42.3967   29.0072   97.8509 O   0  0  0  0  0  0  0  0  0  0  0  0
   40.0261   28.8016   96.5053 O   0  0  0  0  0  0  0  0  0  0  0  0
   40.6375   29.0587   99.9536 H   0  0  0  0  0  0  0  0  0  0  0  0
   41.9354   30.3317   99.8638 H   0  0  0  0  0  0  0  0  0  0  0  0
   39.0784   30.5574  100.9904 H   0  0  0  0  0  0  0  0  0  0  0  0
   40.2334   32.6675   99.5656 H   0  0  0  0  0  0  0  0  0  0  0  0
   38.2080   32.5335  100.7747 H   0  0  0  0  0  0  0  0  0  0  0  0
   41.1694   33.9022  101.9006 H   0  0  0  0  0  0  0  0  0  0  0  0
   42.2216   33.0009  100.7502 H   0  0  0  0  0  0  0  0  0  0  0  0
   41.1878   32.1968  103.4585 H   0  0  0  0  0  0  0  0  0  0  0  0
   45.6595   32.2560  104.4145 H   0  0  0  0  0  0  0  0  0  0  0  0
   45.3812   29.5592  101.1651 H   0  0  0  0  0  0  0  0  0  0  0  0
   43.0013   30.0303  101.0076 H   0  0  0  0  0  0  0  0  0  0  0  0
   42.9716   28.8651   97.0577 H   0  0  0  0  0  0  0  0  0  0  0  0
   40.4381   27.9072   96.6122 H   0  0  0  0  0  0  0  0  0  0  0  0
  3  1  1  0
  3  2  1  0
  4  2  1  0
  5  4  1  0
  6  4  1  0
  6  7  1  0
  8  6  1  0
  9  8  1  0
  9  5  1  0
  9 10  1  0
 11 10  1  0
 12 11  2  0
 13 11  1  0
 14 13  1  0
 15 14  2  0
 16 14  1  0
 17 10  1  0
 17 16  2  0
 18  1  2  0
 19  1  1  0
 20  1  1  0
  2 21  1  0
  2 22  1  0
  4 23  1  1
  6 24  1  6
  7 25  1  0
  8 26  1  0
  8 27  1  0
  9 28  1  1
 13 29  1  0
 16 30  1  0
 17 31  1  0
 19 32  1  0
 20 33  1  0
M  END
