
     RDKit          3D

 33 34  0  0  0  0  0  0  0  0999 V2000
   41.6473   31.0287   97.2399 P   0  0  0  0  0  0  0  0  0  0  0  0
   40.8305   30.8930   99.6499 C   0  0  0  0  0  0  0  0  0  0  0  0
   40.8788   31.7547   98.5426 O   0  0  0  0  0  0  0  0  0  0  0  0
   40.1866   31.6817  100.8013 C   0  0  1  0  0  0  0  0  0  0  0  0
   41.0158   31.6015  101.9407 O   0  0  0  0  0  0  0  0  0  0  0  0
   40.0005   33.1596  100.4442 C   0  0  1  0  0  0  0  0  0  0  0  0
   38.8559   33.6659  101.0789 O   0  0  0  0  0  0  0  0  0  0  0  0
   41.2347   33.8105  101.0129 C   0  0  0  0  0  0  0  0  0  0  0  0
   41.7019   32.8314  102.0875 C   0  0  2  0  0  0  0  0  0  0  0  0
   43.1703   32.6409  102.0278 N   0  0  0  0  0  0  0  0  0  0  0  0
   43.9128   33.3625  101.1218 C   0  0  0  0  0  0  0  0  0  0  0  0
   43.3532   34.2027  100.3630 O   0  0  0  0  0  0  0  0  0  0  0  0
   45.2638   33.1793  101.0369 N   0  0  0  0  0  0  0  0  0  0  0  0
   45.9032   32.2794  101.8342 C   0  0  0  0  0  0  0  0  0  0  0  0
   47.1521   32.1225  101.7385 O   0  0  0  0  0  0  0  0  0  0  0  0
   45.1722   31.5409  102.7662 C   0  0  0  0  0  0  0  0  0  0  0  0
   43.8053   31.7465  102.8567 C   0  0  0  0  0  0  0  0  0  0  0  0
   42.0859   32.1313   96.3043 O   0  0  0  0  0  0  0  0  0  0  0  0
   42.9762   30.1789   97.8048 O   0  0  0  0  0  0  0  0  0  0  0  0
   40.6056   29.9732   96.4593 O   0  0  0  0  0  0  0  0  0  0  0  0
   40.1927   30.0086   99.4268 H   0  0  0  0  0  0  0  0  0  0  0  0
   41.8475   30.5549   99.9526 H   0  0  0  0  0  0  0  0  0  0  0  0
   39.2052   31.2147  101.0375 H   0  0  0  0  0  0  0  0  0  0  0  0
   39.9244   33.3180   99.3418 H   0  0  0  0  0  0  0  0  0  0  0  0
   38.8844   33.3446  102.0181 H   0  0  0  0  0  0  0  0  0  0  0  0
   41.0169   34.8118  101.4459 H   0  0  0  0  0  0  0  0  0  0  0  0
   42.0019   33.9377  100.2177 H   0  0  0  0  0  0  0  0  0  0  0  0
   41.4268   33.2381  103.0865 H   0  0  0  0  0  0  0  0  0  0  0  0
   45.8160   33.7352  100.3443 H   0  0  0  0  0  0  0  0  0  0  0  0
   45.6662   30.8382  103.4255 H   0  0  0  0  0  0  0  0  0  0  0  0
   43.2699   31.2004  103.6183 H   0  0  0  0  0  0  0  0  0  0  0  0
   42.7621   29.2254   97.6470 H   0  0  0  0  0  0  0  0  0  0  0  0
   40.8845   29.9921   95.5091 H   0  0  0  0  0  0  0  0  0  0  0  0
  3  1  1  0
  3  2  1  0
  4  2  1  0
  5  4  1  0
  6  4  1  0
  6  7  1  0
  8  6  1  0
  9  8  1  0
  9  5  1  0
  9 10  1  0
 11 10  1  0
 12 11  2  0
 13 11  1  0
 14 13  1  0
 15 14  2  0
 16 14  1  0
 17 10  1  0
 17 16  2  0
 18  1  2  0
 19  1  1  0
 20  1  1  0
  2 21  1  0
  2 22  1  0
  4 23  1  1
  6 24  1  6
  7 25  1  0
  8 26  1  0
  8 27  1  0
  9 28  1  1
 13 29  1  0
 16 30  1  0
 17 31  1  0
 19 32  1  0
 20 33  1  0
M  END
