
     RDKit          3D

 33 34  0  0  0  0  0  0  0  0999 V2000
   27.1056   37.8849   94.2009 P   0  0  0  0  0  0  0  0  0  0  0  0
   28.6754   39.5715   95.3146 C   0  0  0  0  0  0  0  0  0  0  0  0
   27.9966   38.3632   95.5413 O   0  0  0  0  0  0  0  0  0  0  0  0
   29.2073   40.0471   96.6756 C   0  0  1  0  0  0  0  0  0  0  0  0
   28.1396   40.5806   97.4288 O   0  0  0  0  0  0  0  0  0  0  0  0
   29.8207   38.8972   97.4767 C   0  0  1  0  0  0  0  0  0  0  0  0
   30.8116   39.4032   98.3253 O   0  0  0  0  0  0  0  0  0  0  0  0
   28.6648   38.3992   98.3034 C   0  0  0  0  0  0  0  0  0  0  0  0
   27.7335   39.6083   98.3750 C   0  0  2  0  0  0  0  0  0  0  0  0
   26.3207   39.1882   98.1905 N   0  0  0  0  0  0  0  0  0  0  0  0
   25.7303   38.4535   99.1887 C   0  0  0  0  0  0  0  0  0  0  0  0
   26.3698   38.1954  100.2473 O   0  0  0  0  0  0  0  0  0  0  0  0
   24.4518   37.9937   99.0469 N   0  0  0  0  0  0  0  0  0  0  0  0
   23.7303   38.2391   97.9172 C   0  0  0  0  0  0  0  0  0  0  0  0
   22.5521   37.7896   97.8063 O   0  0  0  0  0  0  0  0  0  0  0  0
   24.3037   38.9963   96.8893 C   0  0  0  0  0  0  0  0  0  0  0  0
   25.6061   39.4668   97.0484 C   0  0  0  0  0  0  0  0  0  0  0  0
   26.5735   36.4958   94.4725 O   0  0  0  0  0  0  0  0  0  0  0  0
   25.8290   38.9425   93.9628 O   0  0  0  0  0  0  0  0  0  0  0  0
   28.0784   37.8986   92.8379 O   0  0  0  0  0  0  0  0  0  0  0  0
   29.5404   39.4032   94.6353 H   0  0  0  0  0  0  0  0  0  0  0  0
   28.0060   40.3472   94.8792 H   0  0  0  0  0  0  0  0  0  0  0  0
   29.9606   40.8464   96.4998 H   0  0  0  0  0  0  0  0  0  0  0  0
   30.2431   38.0988   96.8208 H   0  0  0  0  0  0  0  0  0  0  0  0
   30.4876   39.2700   99.2546 H   0  0  0  0  0  0  0  0  0  0  0  0
   28.9896   38.0800   99.3186 H   0  0  0  0  0  0  0  0  0  0  0  0
   28.1778   37.5273   97.8153 H   0  0  0  0  0  0  0  0  0  0  0  0
   27.8429   40.0798   99.3777 H   0  0  0  0  0  0  0  0  0  0  0  0
   24.0205   37.4334   99.8175 H   0  0  0  0  0  0  0  0  0  0  0  0
   23.7449   39.2214   95.9897 H   0  0  0  0  0  0  0  0  0  0  0  0
   26.0301   40.0684   96.2581 H   0  0  0  0  0  0  0  0  0  0  0  0
   25.5235   39.1911   94.8708 H   0  0  0  0  0  0  0  0  0  0  0  0
   27.5243   37.4971   92.1219 H   0  0  0  0  0  0  0  0  0  0  0  0
  3  1  1  0
  3  2  1  0
  4  2  1  0
  5  4  1  0
  6  4  1  0
  6  7  1  0
  8  6  1  0
  9  8  1  0
  9  5  1  0
  9 10  1  0
 11 10  1  0
 12 11  2  0
 13 11  1  0
 14 13  1  0
 15 14  2  0
 16 14  1  0
 17 16  2  0
 17 10  1  0
 18  1  2  0
 19  1  1  0
 20  1  1  0
  2 21  1  0
  2 22  1  0
  4 23  1  6
  6 24  1  6
  7 25  1  0
  8 26  1  0
  8 27  1  0
  9 28  1  1
 13 29  1  0
 16 30  1  0
 17 31  1  0
 19 32  1  0
 20 33  1  0
M  END
