
     RDKit          3D

 52 54  0  0  0  0  0  0  0  0999 V2000
   79.2611   -9.9935   74.1647 C   0  0  0  0  0  0  0  0  0  0  0  0
   77.7786   -9.0149   74.1599 S   0  0  0  0  0  0  0  0  0  0  0  0
   76.9389   -9.2918   75.3708 O   0  0  0  0  0  0  0  0  0  0  0  0
   78.1025   -7.5529   74.0751 O   0  0  0  0  0  0  0  0  0  0  0  0
   76.8768   -9.4885   72.7619 C   0  0  0  0  0  0  0  0  0  0  0  0
   77.0092   -8.7814   71.5696 C   0  0  0  0  0  0  0  0  0  0  0  0
   76.3277   -9.2080   70.4399 C   0  0  0  0  0  0  0  0  0  0  0  0
   75.5069  -10.3559   70.4931 C   0  0  0  0  0  0  0  0  0  0  0  0
   75.3696  -11.0403   71.7095 C   0  0  0  0  0  0  0  0  0  0  0  0
   76.0653  -10.6195   72.8307 C   0  0  0  0  0  0  0  0  0  0  0  0
   74.7013  -10.8367   69.3139 C   0  0  1  0  0  0  0  0  0  0  0  0
   75.0201  -10.0987   68.0186 C   0  0  0  0  0  0  0  0  0  0  0  0
   74.1445  -10.6085   66.8900 C   0  0  0  0  0  0  0  0  0  0  0  0
   74.2877   -9.6987   65.7843 N   0  0  0  0  0  0  0  0  0  0  0  0
   75.3862   -8.7982   65.7086 C   0  0  0  0  0  0  0  0  0  0  0  0
   75.9532   -8.4116   66.7668 O   0  0  0  0  0  0  0  0  0  0  0  0
   75.8566   -8.3236   64.4030 C   0  0  0  0  0  0  0  0  0  0  0  0
   75.3860   -8.9011   63.2046 C   0  0  0  0  0  0  0  0  0  0  0  0
   75.8332   -8.4321   61.9772 C   0  0  0  0  0  0  0  0  0  0  0  0
   76.7750   -7.4044   61.9331 C   0  0  0  0  0  0  0  0  0  0  0  0
   77.2612   -6.8381   63.1129 C   0  0  0  0  0  0  0  0  0  0  0  0
   76.8015   -7.2905   64.3434 C   0  0  0  0  0  0  0  0  0  0  0  0
   77.2516   -6.9251   60.6743 C   0  0  0  0  0  0  0  0  0  0  0  0
   77.6379   -6.5372   59.6577 N   0  0  0  0  0  0  0  0  0  0  0  0
   74.8602  -12.3271   69.1192 C   0  0  0  0  0  0  0  0  0  0  0  0
   75.8980  -12.8533   68.3300 C   0  0  0  0  0  0  0  0  0  0  0  0
   76.0233  -14.2344   68.1751 C   0  0  0  0  0  0  0  0  0  0  0  0
   75.1130  -15.0911   68.8000 C   0  0  0  0  0  0  0  0  0  0  0  0
   74.0719  -14.5711   69.5678 C   0  0  0  0  0  0  0  0  0  0  0  0
   73.9431  -13.1957   69.7266 C   0  0  0  0  0  0  0  0  0  0  0  0
   75.2361  -16.4315   68.6648 F   0  0  0  0  0  0  0  0  0  0  0  0
   78.9965  -11.0702   74.2102 H   0  0  0  0  0  0  0  0  0  0  0  0
   79.8770   -9.7285   75.0486 H   0  0  0  0  0  0  0  0  0  0  0  0
   79.8405   -9.7952   73.2394 H   0  0  0  0  0  0  0  0  0  0  0  0
   77.6518   -7.9121   71.5081 H   0  0  0  0  0  0  0  0  0  0  0  0
   76.4727   -8.6341   69.5376 H   0  0  0  0  0  0  0  0  0  0  0  0
   74.7230  -11.9054   71.7922 H   0  0  0  0  0  0  0  0  0  0  0  0
   75.9684  -11.1764   73.7543 H   0  0  0  0  0  0  0  0  0  0  0  0
   73.6412  -10.6032   69.5660 H   0  0  0  0  0  0  0  0  0  0  0  0
   76.0914  -10.2131   67.7405 H   0  0  0  0  0  0  0  0  0  0  0  0
   74.7930   -9.0185   68.1631 H   0  0  0  0  0  0  0  0  0  0  0  0
   74.4236  -11.6440   66.5953 H   0  0  0  0  0  0  0  0  0  0  0  0
   73.0752  -10.6191   67.1970 H   0  0  0  0  0  0  0  0  0  0  0  0
   73.4241   -9.5484   65.2211 H   0  0  0  0  0  0  0  0  0  0  0  0
   74.7142   -9.7433   63.1813 H   0  0  0  0  0  0  0  0  0  0  0  0
   75.4666   -8.8844   61.0630 H   0  0  0  0  0  0  0  0  0  0  0  0
   77.9932   -6.0396   63.0794 H   0  0  0  0  0  0  0  0  0  0  0  0
   77.1858   -6.8294   65.2450 H   0  0  0  0  0  0  0  0  0  0  0  0
   76.6124  -12.1965   67.8499 H   0  0  0  0  0  0  0  0  0  0  0  0
   76.8281  -14.6405   67.5760 H   0  0  0  0  0  0  0  0  0  0  0  0
   73.3654  -15.2378   70.0455 H   0  0  0  0  0  0  0  0  0  0  0  0
   73.1295  -12.8116   70.3294 H   0  0  0  0  0  0  0  0  0  0  0  0
  2  1  1  0
  3  2  2  0
  4  2  2  0
  5  2  1  0
  6  5  2  0
  7  6  1  0
  8  7  2  0
  9  8  1  0
 10  9  2  0
 10  5  1  0
 11  8  1  0
 11 12  1  0
 13 12  1  0
 14 13  1  0
 15 14  1  0
 16 15  2  0
 17 15  1  0
 18 17  2  0
 19 18  1  0
 20 19  2  0
 21 20  1  0
 22 21  2  0
 22 17  1  0
 23 20  1  0
 24 23  3  0
 25 11  1  0
 26 25  2  0
 27 26  1  0
 28 27  2  0
 29 28  1  0
 30 29  2  0
 30 25  1  0
 31 28  1  0
  1 32  1  0
  1 33  1  0
  1 34  1  0
  6 35  1  0
  7 36  1  0
  9 37  1  0
 10 38  1  0
 11 39  1  1
 12 40  1  0
 12 41  1  0
 13 42  1  0
 13 43  1  0
 14 44  1  0
 18 45  1  0
 19 46  1  0
 21 47  1  0
 22 48  1  0
 26 49  1  0
 27 50  1  0
 29 51  1  0
 30 52  1  0
M  END
