
     RDKit          3D

 50 52  0  0  0  0  0  0  0  0999 V2000
   -1.9389   29.3331   56.4495 N   0  0  0  0  0  0  0  0  0  0  0  0
   -1.0786   28.6671   57.4392 C   0  0  2  0  0  0  0  0  0  0  0  0
   -1.7690   27.5163   58.1224 C   0  0  0  0  0  0  0  0  0  0  0  0
   -2.9182   27.6451   58.6192 O   0  0  0  0  0  0  0  0  0  0  0  0
   -0.5722   29.6970   58.4816 C   0  0  0  0  0  0  0  0  0  0  0  0
    0.7579   30.3627   58.0721 C   0  0  0  0  0  0  0  0  0  0  0  0
    1.9878   29.3916   58.1371 C   0  0  2  0  0  0  0  0  0  0  0  0
    2.8834   29.7717   59.2381 N   0  0  0  0  0  0  0  0  0  0  0  0
    2.8169   29.3897   56.8254 C   0  0  0  0  0  0  0  0  0  0  0  0
    2.2242   28.5472   55.6663 C   0  0  1  0  0  0  0  0  0  0  0  0
    0.9605   29.0250   55.2338 O   0  0  0  0  0  0  0  0  0  0  0  0
    3.1251   28.5097   54.4408 C   0  0  1  0  0  0  0  0  0  0  0  0
    4.1471   27.5554   54.5771 O   0  0  0  0  0  0  0  0  0  0  0  0
    2.1262   28.1535   53.3558 C   0  0  1  0  0  0  0  0  0  0  0  0
    1.8672   26.7587   53.3273 O   0  0  0  0  0  0  0  0  0  0  0  0
    0.8883   28.9169   53.8253 C   0  0  2  0  0  0  0  0  0  0  0  0
   -1.1452   26.2802   58.1618 O   0  0  0  0  0  0  0  0  0  0  0  0
   -0.4306   31.7220   49.6891 N   0  0  0  0  0  0  0  0  0  0  0  0
   -0.4165   30.3559   49.8337 C   0  0  0  0  0  0  0  0  0  0  0  0
   -0.0294   29.7809   51.0158 N   0  0  0  0  0  0  0  0  0  0  0  0
    0.3560   30.6057   52.0254 C   0  0  0  0  0  0  0  0  0  0  0  0
    0.3545   31.9564   51.9153 C   0  0  0  0  0  0  0  0  0  0  0  0
   -0.0584   32.5472   50.7192 C   0  0  0  0  0  0  0  0  0  0  0  0
   -0.0886   33.9619   50.5562 N   0  0  0  0  0  0  0  0  0  0  0  0
    0.7936   32.5295   53.0597 N   0  0  0  0  0  0  0  0  0  0  0  0
    1.0666   31.4563   53.8485 C   0  0  0  0  0  0  0  0  0  0  0  0
    0.8029   30.2627   53.2416 N   0  0  0  0  0  0  0  0  0  0  0  0
   -2.8371   29.6196   56.9037 H   0  0  0  0  0  0  0  0  0  0  0  0
   -2.1697   28.6515   55.6901 H   0  0  0  0  0  0  0  0  0  0  0  0
   -0.2242   28.2060   56.9143 H   0  0  0  0  0  0  0  0  0  0  0  0
   -0.4133   29.2236   59.4751 H   0  0  0  0  0  0  0  0  0  0  0  0
   -1.3422   30.4851   58.6326 H   0  0  0  0  0  0  0  0  0  0  0  0
    0.9209   31.2180   58.7638 H   0  0  0  0  0  0  0  0  0  0  0  0
    0.6401   30.8384   57.0798 H   0  0  0  0  0  0  0  0  0  0  0  0
    1.6526   28.3478   58.3248 H   0  0  0  0  0  0  0  0  0  0  0  0
    3.3980   30.6473   58.9854 H   0  0  0  0  0  0  0  0  0  0  0  0
    2.3040   29.9774   60.0846 H   0  0  0  0  0  0  0  0  0  0  0  0
    3.8275   28.9841   57.0539 H   0  0  0  0  0  0  0  0  0  0  0  0
    2.9586   30.4378   56.4824 H   0  0  0  0  0  0  0  0  0  0  0  0
    2.0946   27.5112   56.0523 H   0  0  0  0  0  0  0  0  0  0  0  0
    3.5566   29.5202   54.2445 H   0  0  0  0  0  0  0  0  0  0  0  0
    4.2428   27.3880   55.5507 H   0  0  0  0  0  0  0  0  0  0  0  0
    2.4749   28.4881   52.3547 H   0  0  0  0  0  0  0  0  0  0  0  0
    1.3208   26.5015   54.1145 H   0  0  0  0  0  0  0  0  0  0  0  0
   -0.0348   28.3565   53.5574 H   0  0  0  0  0  0  0  0  0  0  0  0
   -0.4937   26.0490   58.9023 H   0  0  0  0  0  0  0  0  0  0  0  0
   -0.7209   29.7276   49.0081 H   0  0  0  0  0  0  0  0  0  0  0  0
    0.7854   34.5296   50.6224 H   0  0  0  0  0  0  0  0  0  0  0  0
   -0.9926   34.4492   50.3681 H   0  0  0  0  0  0  0  0  0  0  0  0
    1.4357   31.5521   54.8601 H   0  0  0  0  0  0  0  0  0  0  0  0
  2  1  1  0
  3  2  1  0
  4  3  2  0
  5  2  1  0
  6  5  1  0
  7  6  1  0
  7  8  1  0
  9  7  1  0
 10  9  1  0
 11 10  1  0
 12 10  1  0
 12 13  1  0
 14 12  1  0
 14 15  1  0
 16 14  1  0
 16 11  1  0
 17  3  1  0
 19 18  2  0
 20 19  1  0
 21 20  2  0
 22 21  1  0
 23 22  2  0
 23 18  1  0
 24 23  1  0
 25 22  1  0
 26 25  2  0
 27 26  1  0
 27 21  1  0
 16 27  1  0
  1 28  1  0
  1 29  1  0
  2 30  1  6
  5 31  1  0
  5 32  1  0
  6 33  1  0
  6 34  1  0
  7 35  1  1
  8 36  1  0
  8 37  1  0
  9 38  1  0
  9 39  1  0
 10 40  1  1
 12 41  1  6
 13 42  1  0
 14 43  1  6
 15 44  1  0
 16 45  1  1
 17 46  1  0
 19 47  1  0
 24 48  1  0
 24 49  1  0
 26 50  1  0
M  END
