
     RDKit          3D

 73 78  0  0  0  0  0  0  0  0999 V2000
   37.7537    7.5195   24.5345 P   0  0  2  0  0  0  0  0  0  0  0  0
   37.6918    9.1109   22.1449 P   0  0  1  0  0  0  0  0  0  0  0  0
   35.3355    9.1877   23.1823 C   0  0  0  0  0  0  0  0  0  0  0  0
   36.3372   10.0088   22.6390 O   0  0  0  0  0  0  0  0  0  0  0  0
   33.9628    9.6418   22.6728 C   0  0  1  0  0  0  0  0  0  0  0  0
   33.6718   10.9821   23.0136 O   0  0  0  0  0  0  0  0  0  0  0  0
   33.8125    9.5197   21.1465 C   0  0  1  0  0  0  0  0  0  0  0  0
   33.0959    8.3528   20.8242 O   0  0  0  0  0  0  0  0  0  0  0  0
   33.0511   10.7960   20.7653 C   0  0  1  0  0  0  0  0  0  0  0  0
   31.9378   10.5484   19.9428 O   0  0  0  0  0  0  0  0  0  0  0  0
   32.6258   11.3260   22.1330 C   0  0  2  0  0  0  0  0  0  0  0  0
   29.9578   14.9423   24.6012 N   0  0  0  0  0  0  0  0  0  0  0  0
   37.5195    8.8121   25.2819 O   0  0  0  0  0  0  0  0  0  0  0  0
   37.5695    8.7836   20.6755 O   0  0  0  0  0  0  0  0  0  0  0  0
   30.0107   13.5862   24.8263 C   0  0  0  0  0  0  0  0  0  0  0  0
   29.2435   13.0144   25.8747 N   0  0  0  0  0  0  0  0  0  0  0  0
   36.4955    6.4416   24.7810 O   0  0  0  0  0  0  0  0  0  0  0  0
   39.0165   10.1121   22.3691 O   0  0  0  0  0  0  0  0  0  0  0  0
   30.7965   12.7818   24.0536 N   0  0  0  0  0  0  0  0  0  0  0  0
   39.1122    6.7147   25.1186 O   0  0  0  0  0  0  0  0  0  0  0  0
   37.9515    7.6041   22.8618 O   0  0  0  0  0  0  0  0  0  0  0  0
   31.5203   13.3687   23.0701 C   0  0  0  0  0  0  0  0  0  0  0  0
   31.4922   14.7031   22.8286 C   0  0  0  0  0  0  0  0  0  0  0  0
   30.6890   15.5316   23.6088 C   0  0  0  0  0  0  0  0  0  0  0  0
   30.6297   16.7782   23.4237 O   0  0  0  0  0  0  0  0  0  0  0  0
   32.3062   15.0086   21.7983 N   0  0  0  0  0  0  0  0  0  0  0  0
   32.8106   13.7963   21.4364 C   0  0  0  0  0  0  0  0  0  0  0  0
   32.3386   12.7671   22.1937 N   0  0  0  0  0  0  0  0  0  0  0  0
   40.2511    7.5231   25.0092 C   0  0  0  0  0  0  0  0  0  0  0  0
   41.4228    6.6735   25.5142 C   0  0  1  0  0  0  0  0  0  0  0  0
   41.6874    5.6879   24.5341 O   0  0  0  0  0  0  0  0  0  0  0  0
   42.6533    7.5026   25.8434 C   0  0  0  0  0  0  0  0  0  0  0  0
   42.4512    9.0015   26.8100 S   0  0  0  0  0  0  0  0  0  0  0  0
   43.8911    7.0167   25.5854 C   0  0  0  0  0  0  0  0  0  0  0  0
   45.3698    7.8831   26.1111 S   0  0  0  0  0  0  0  0  0  0  0  0
   44.0855    5.7512   24.8107 C   0  0  2  0  0  0  0  0  0  0  0  0
   44.4181    6.0893   23.4175 N   0  0  0  0  0  0  0  0  0  0  0  0
   44.1412    5.1513   22.3699 C   0  0  0  0  0  0  0  0  0  0  0  0
   44.6088    5.3095   21.0503 C   0  0  0  0  0  0  0  0  0  0  0  0
   45.3660    6.2676   20.7322 O   0  0  0  0  0  0  0  0  0  0  0  0
   44.2293    4.4077   20.1006 N   0  0  0  0  0  0  0  0  0  0  0  0
   43.4060    3.3639   20.4098 C   0  0  0  0  0  0  0  0  0  0  0  0
   42.9247    2.4977   19.3934 N   0  0  0  0  0  0  0  0  0  0  0  0
   42.9914    3.1765   21.6798 N   0  0  0  0  0  0  0  0  0  0  0  0
   43.3474    4.0308   22.6556 C   0  0  0  0  0  0  0  0  0  0  0  0
   42.8922    3.7898   23.9769 N   0  0  0  0  0  0  0  0  0  0  0  0
   42.8012    4.8998   24.9007 C   0  0  2  0  0  0  0  0  0  0  0  0
   35.3453    9.2873   24.2876 H   0  0  0  0  0  0  0  0  0  0  0  0
   35.4428    8.1074   22.9265 H   0  0  0  0  0  0  0  0  0  0  0  0
   33.2081    8.9889   23.1740 H   0  0  0  0  0  0  0  0  0  0  0  0
   34.7967    9.5184   20.6228 H   0  0  0  0  0  0  0  0  0  0  0  0
   33.7278    7.5952   20.9351 H   0  0  0  0  0  0  0  0  0  0  0  0
   33.7581   11.4966   20.2692 H   0  0  0  0  0  0  0  0  0  0  0  0
   32.2972   10.3531   19.0384 H   0  0  0  0  0  0  0  0  0  0  0  0
   31.6972   10.7867   22.4455 H   0  0  0  0  0  0  0  0  0  0  0  0
   29.3478   15.5393   25.2047 H   0  0  0  0  0  0  0  0  0  0  0  0
   29.2788   11.9862   26.0532 H   0  0  0  0  0  0  0  0  0  0  0  0
   28.6360   13.6105   26.4796 H   0  0  0  0  0  0  0  0  0  0  0  0
   36.9084    5.5446   24.7025 H   0  0  0  0  0  0  0  0  0  0  0  0
   39.6963    9.5390   22.8050 H   0  0  0  0  0  0  0  0  0  0  0  0
   33.5168   13.6849   20.6266 H   0  0  0  0  0  0  0  0  0  0  0  0
   40.1253    8.4275   25.6428 H   0  0  0  0  0  0  0  0  0  0  0  0
   40.4391    7.8209   23.9522 H   0  0  0  0  0  0  0  0  0  0  0  0
   41.0960    6.1788   26.4583 H   0  0  0  0  0  0  0  0  0  0  0  0
   42.4985    8.2897   28.0232 H   0  0  0  0  0  0  0  0  0  0  0  0
   45.4023    7.1915   27.3364 H   0  0  0  0  0  0  0  0  0  0  0  0
   44.9281    5.1744   25.2511 H   0  0  0  0  0  0  0  0  0  0  0  0
   45.0278    6.9149   23.2179 H   0  0  0  0  0  0  0  0  0  0  0  0
   44.5528    4.5346   19.1146 H   0  0  0  0  0  0  0  0  0  0  0  0
   43.2110    2.6323   18.3983 H   0  0  0  0  0  0  0  0  0  0  0  0
   42.2779    1.7128   19.6301 H   0  0  0  0  0  0  0  0  0  0  0  0
   42.4465    2.8765   24.2203 H   0  0  0  0  0  0  0  0  0  0  0  0
   42.6811    4.4914   25.9322 H   0  0  0  0  0  0  0  0  0  0  0  0
  2  4  1  1
  4  3  1  0
  5  3  1  0
  6  5  1  0
  7  5  1  0
  7  8  1  0
  9  7  1  0
  9 10  1  0
 11  9  1  0
 11  6  1  0
 13  1  2  0
 14  2  2  0
 15 12  1  0
 16 15  1  0
  1 17  1  6
 18  2  1  0
 19 15  2  0
 20  1  1  0
 21  2  1  0
 21  1  1  0
 22 19  1  0
 23 22  2  0
 24 23  1  0
 24 12  1  0
 25 24  2  0
 26 23  1  0
 27 26  2  0
 28 27  1  0
 11 28  1  0
 28 22  1  0
 29 20  1  0
 30 29  1  0
 31 30  1  0
 32 30  1  0
 33 32  1  0
 34 32  2  0
 35 34  1  0
 36 34  1  0
 36 37  1  0
 38 37  1  0
 39 38  1  0
 40 39  2  0
 41 39  1  0
 42 41  1  0
 43 42  1  0
 44 42  2  0
 45 44  1  0
 45 38  2  0
 46 45  1  0
 47 46  1  0
 47 31  1  0
 47 36  1  0
  3 48  1  0
  3 49  1  0
  5 50  1  1
  7 51  1  6
  8 52  1  0
  9 53  1  6
 10 54  1  0
 11 55  1  1
 12 56  1  0
 16 57  1  0
 16 58  1  0
 17 59  1  0
 18 60  1  0
 27 61  1  0
 29 62  1  0
 29 63  1  0
 30 64  1  1
 33 65  1  0
 35 66  1  0
 36 67  1  1
 37 68  1  0
 41 69  1  0
 43 70  1  0
 43 71  1  0
 46 72  1  0
 47 73  1  1
M  END
