
     RDKit          3D

 73 78  0  0  0  0  0  0  0  0999 V2000
   87.1451   11.3972   -7.9672 P   0  0  2  0  0  0  0  0  0  0  0  0
   87.3230   12.5115   -5.3301 P   0  0  1  0  0  0  0  0  0  0  0  0
   89.7377   12.5392   -6.2151 C   0  0  0  0  0  0  0  0  0  0  0  0
   88.7522   13.3691   -5.6562 O   0  0  0  0  0  0  0  0  0  0  0  0
   91.0959   12.8802   -5.6036 C   0  0  1  0  0  0  0  0  0  0  0  0
   91.4563   14.2316   -5.8056 O   0  0  0  0  0  0  0  0  0  0  0  0
   91.1569   12.6210   -4.0891 C   0  0  1  0  0  0  0  0  0  0  0  0
   91.8254   11.4108   -3.8402 O   0  0  0  0  0  0  0  0  0  0  0  0
   91.9300   13.8356   -3.5581 C   0  0  1  0  0  0  0  0  0  0  0  0
   92.9804   13.5005   -2.6882 O   0  0  0  0  0  0  0  0  0  0  0  0
   92.4641   14.4460   -4.8450 C   0  0  2  0  0  0  0  0  0  0  0  0
   95.2395   18.1585   -7.0232 N   0  0  0  0  0  0  0  0  0  0  0  0
   87.4599   12.7937   -8.4508 O   0  0  0  0  0  0  0  0  0  0  0  0
   87.4063   11.9263   -3.9398 O   0  0  0  0  0  0  0  0  0  0  0  0
   95.1195   16.8334   -7.3715 C   0  0  0  0  0  0  0  0  0  0  0  0
   95.8281   16.3309   -8.4959 N   0  0  0  0  0  0  0  0  0  0  0  0
   88.3195   10.3116   -8.4629 O   0  0  0  0  0  0  0  0  0  0  0  0
   86.0638   13.6174   -5.3810 O   0  0  0  0  0  0  0  0  0  0  0  0
   94.3178   15.9948   -6.6532 N   0  0  0  0  0  0  0  0  0  0  0  0
   85.7275   10.8114   -8.6573 O   0  0  0  0  0  0  0  0  0  0  0  0
   86.9824   11.1746   -6.3021 O   0  0  0  0  0  0  0  0  0  0  0  0
   93.6499   16.5149   -5.5961 C   0  0  0  0  0  0  0  0  0  0  0  0
   93.7472   17.8166   -5.2277 C   0  0  0  0  0  0  0  0  0  0  0  0
   94.5617   18.6834   -5.9590 C   0  0  0  0  0  0  0  0  0  0  0  0
   94.6794   19.9052   -5.6676 O   0  0  0  0  0  0  0  0  0  0  0  0
   92.9868   18.0495   -4.1382 N   0  0  0  0  0  0  0  0  0  0  0  0
   92.4379   16.8299   -3.8802 C   0  0  0  0  0  0  0  0  0  0  0  0
   92.8267   15.8669   -4.7607 N   0  0  0  0  0  0  0  0  0  0  0  0
   84.6557   11.6652   -8.3725 C   0  0  0  0  0  0  0  0  0  0  0  0
   83.4256   11.0171   -9.0123 C   0  0  1  0  0  0  0  0  0  0  0  0
   83.1761    9.8002   -8.3305 O   0  0  0  0  0  0  0  0  0  0  0  0
   82.2141   11.9337   -9.0172 C   0  0  0  0  0  0  0  0  0  0  0  0
   82.4187   13.6449   -9.5120 S   0  0  0  0  0  0  0  0  0  0  0  0
   80.9739   11.4263   -8.8422 C   0  0  0  0  0  0  0  0  0  0  0  0
   79.5075   12.4470   -9.0204 S   0  0  0  0  0  0  0  0  0  0  0  0
   80.7692    9.9996   -8.4411 C   0  0  2  0  0  0  0  0  0  0  0  0
   80.5137    9.9435   -6.9916 N   0  0  0  0  0  0  0  0  0  0  0  0
   80.8186    8.7516   -6.2547 C   0  0  0  0  0  0  0  0  0  0  0  0
   80.4504    8.5662   -4.9033 C   0  0  0  0  0  0  0  0  0  0  0  0
   79.7678    9.4298   -4.2857 O   0  0  0  0  0  0  0  0  0  0  0  0
   80.8514    7.4371   -4.2520 N   0  0  0  0  0  0  0  0  0  0  0  0
   81.6083    6.4950   -4.8830 C   0  0  0  0  0  0  0  0  0  0  0  0
   82.1278    5.3892   -4.1575 N   0  0  0  0  0  0  0  0  0  0  0  0
   81.9303    6.6404   -6.1910 N   0  0  0  0  0  0  0  0  0  0  0  0
   81.5454    7.7305   -6.8862 C   0  0  0  0  0  0  0  0  0  0  0  0
   81.9148    7.8507   -8.2554 N   0  0  0  0  0  0  0  0  0  0  0  0
   82.0139    9.1738   -8.8376 C   0  0  2  0  0  0  0  0  0  0  0  0
   89.7931   12.7258   -7.3077 H   0  0  0  0  0  0  0  0  0  0  0  0
   89.5663   11.4495   -6.0504 H   0  0  0  0  0  0  0  0  0  0  0  0
   91.8489   12.2408   -6.1247 H   0  0  0  0  0  0  0  0  0  0  0  0
   90.1465   12.6024   -3.6180 H   0  0  0  0  0  0  0  0  0  0  0  0
   91.1800   10.6852   -4.0464 H   0  0  0  0  0  0  0  0  0  0  0  0
   91.2108   14.5225   -3.0600 H   0  0  0  0  0  0  0  0  0  0  0  0
   93.1169   14.2887   -2.1007 H   0  0  0  0  0  0  0  0  0  0  0  0
   93.3831   13.8847   -5.1486 H   0  0  0  0  0  0  0  0  0  0  0  0
   95.8576   18.7834   -7.5891 H   0  0  0  0  0  0  0  0  0  0  0  0
   95.9646   16.9271   -9.3421 H   0  0  0  0  0  0  0  0  0  0  0  0
   96.2203   15.3632   -8.4922 H   0  0  0  0  0  0  0  0  0  0  0  0
   88.8791   10.1567   -7.6605 H   0  0  0  0  0  0  0  0  0  0  0  0
   86.4665   14.4744   -5.0916 H   0  0  0  0  0  0  0  0  0  0  0  0
   91.7569   16.6672   -3.0576 H   0  0  0  0  0  0  0  0  0  0  0  0
   84.8469   12.6637   -8.8216 H   0  0  0  0  0  0  0  0  0  0  0  0
   84.4936   11.7633   -7.2746 H   0  0  0  0  0  0  0  0  0  0  0  0
   83.6774   10.8004  -10.0766 H   0  0  0  0  0  0  0  0  0  0  0  0
   81.0334   13.8144   -9.6936 H   0  0  0  0  0  0  0  0  0  0  0  0
   79.3904   12.1312  -10.3869 H   0  0  0  0  0  0  0  0  0  0  0  0
   79.8847    9.5904   -8.9767 H   0  0  0  0  0  0  0  0  0  0  0  0
   79.9421   10.6929   -6.5390 H   0  0  0  0  0  0  0  0  0  0  0  0
   80.6024    7.3099   -3.2445 H   0  0  0  0  0  0  0  0  0  0  0  0
   81.4884    4.6852   -3.7266 H   0  0  0  0  0  0  0  0  0  0  0  0
   83.1591    5.2672   -4.0483 H   0  0  0  0  0  0  0  0  0  0  0  0
   82.3074    7.0285   -8.7672 H   0  0  0  0  0  0  0  0  0  0  0  0
   82.0678    9.0673   -9.9471 H   0  0  0  0  0  0  0  0  0  0  0  0
  4  3  1  0
  2  4  1  6
  5  3  1  0
  6  5  1  0
  7  5  1  0
  7  8  1  0
  9  7  1  0
  9 10  1  0
 11  9  1  0
 11  6  1  0
 13  1  2  0
 14  2  2  0
 15 12  1  0
 16 15  1  0
  1 17  1  6
 18  2  1  0
 19 15  2  0
 20  1  1  0
 21  1  1  0
 21  2  1  0
 22 19  1  0
 23 22  2  0
 24 12  1  0
 24 23  1  0
 25 24  2  0
 26 23  1  0
 27 26  2  0
 11 28  1  0
 28 27  1  0
 28 22  1  0
 29 20  1  0
 30 29  1  0
 31 30  1  0
 32 30  1  0
 33 32  1  0
 34 32  2  0
 35 34  1  0
 36 34  1  0
 36 37  1  0
 38 37  1  0
 39 38  1  0
 40 39  2  0
 41 39  1  0
 42 41  1  0
 43 42  1  0
 44 42  2  0
 45 38  2  0
 45 44  1  0
 46 45  1  0
 47 36  1  0
 47 46  1  0
 47 31  1  0
  3 48  1  0
  3 49  1  0
  5 50  1  6
  7 51  1  1
  8 52  1  0
  9 53  1  1
 10 54  1  0
 11 55  1  6
 12 56  1  0
 16 57  1  0
 16 58  1  0
 17 59  1  0
 18 60  1  0
 27 61  1  0
 29 62  1  0
 29 63  1  0
 30 64  1  6
 33 65  1  0
 35 66  1  0
 36 67  1  6
 37 68  1  0
 41 69  1  0
 43 70  1  0
 43 71  1  0
 46 72  1  0
 47 73  1  6
M  END
