
     RDKit          3D

 73 78  0  0  0  0  0  0  0  0999 V2000
   28.6238  -60.0348   72.9897 P   0  0  2  0  0  0  0  0  0  0  0  0
   27.9923  -57.3323   72.5732 P   0  0  1  0  0  0  0  0  0  0  0  0
   25.6488  -56.8826   73.5054 C   0  0  0  0  0  0  0  0  0  0  0  0
   26.4262  -57.8637   72.8778 O   0  0  0  0  0  0  0  0  0  0  0  0
   24.2092  -57.1304   73.0385 C   0  0  1  0  0  0  0  0  0  0  0  0
   23.3132  -56.6468   74.0119 O   0  0  0  0  0  0  0  0  0  0  0  0
   23.9181  -56.4509   71.6877 C   0  0  1  0  0  0  0  0  0  0  0  0
   23.1656  -57.2950   70.8417 O   0  0  0  0  0  0  0  0  0  0  0  0
   23.1589  -55.2105   72.1200 C   0  0  1  0  0  0  0  0  0  0  0  0
   22.2542  -54.7202   71.1553 O   0  0  0  0  0  0  0  0  0  0  0  0
   22.4779  -55.6978   73.3977 C   0  0  2  0  0  0  0  0  0  0  0  0
   19.8021  -54.7165   77.5998 N   0  0  0  0  0  0  0  0  0  0  0  0
   28.1801  -59.7990   74.4181 O   0  0  0  0  0  0  0  0  0  0  0  0
   28.0016  -56.3492   71.4282 O   0  0  0  0  0  0  0  0  0  0  0  0
   19.7928  -55.8251   76.7883 C   0  0  0  0  0  0  0  0  0  0  0  0
   18.9895  -56.9462   77.1301 N   0  0  0  0  0  0  0  0  0  0  0  0
   27.5910  -61.0989   72.2071 O   0  0  0  0  0  0  0  0  0  0  0  0
   28.6780  -56.6332   73.9350 O   0  0  0  0  0  0  0  0  0  0  0  0
   20.5599  -55.8677   75.6651 N   0  0  0  0  0  0  0  0  0  0  0  0
   30.1271  -60.7758   72.9612 O   0  0  0  0  0  0  0  0  0  0  0  0
   28.8760  -58.6546   72.0431 O   0  0  0  0  0  0  0  0  0  0  0  0
   21.3328  -54.7896   75.3937 C   0  0  0  0  0  0  0  0  0  0  0  0
   21.3828  -53.6891   76.1825 C   0  0  0  0  0  0  0  0  0  0  0  0
   20.5828  -53.6289   77.3250 C   0  0  0  0  0  0  0  0  0  0  0  0
   20.5607  -52.6220   78.0863 O   0  0  0  0  0  0  0  0  0  0  0  0
   22.2738  -52.8015   75.6890 N   0  0  0  0  0  0  0  0  0  0  0  0
   22.7434  -53.4294   74.5760 C   0  0  0  0  0  0  0  0  0  0  0  0
   22.1687  -54.6453   74.3637 N   0  0  0  0  0  0  0  0  0  0  0  0
   31.0967  -59.8784   73.4405 C   0  0  0  0  0  0  0  0  0  0  0  0
   32.3351  -60.7216   73.6967 C   0  0  1  0  0  0  0  0  0  0  0  0
   32.8442  -61.1404   72.4468 O   0  0  0  0  0  0  0  0  0  0  0  0
   33.4162  -60.0357   74.4991 C   0  0  0  0  0  0  0  0  0  0  0  0
   33.0112  -58.7702   75.7136 S   0  0  0  0  0  0  0  0  0  0  0  0
   34.6805  -60.4937   74.3958 C   0  0  0  0  0  0  0  0  0  0  0  0
   35.9886  -59.7983   75.4116 S   0  0  0  0  0  0  0  0  0  0  0  0
   35.0721  -61.5355   73.3807 C   0  0  2  0  0  0  0  0  0  0  0  0
   36.0277  -60.9291   72.4545 N   0  0  0  0  0  0  0  0  0  0  0  0
   36.3699  -61.6393   71.2784 C   0  0  0  0  0  0  0  0  0  0  0  0
   37.6315  -61.5310   70.6660 C   0  0  0  0  0  0  0  0  0  0  0  0
   38.5382  -60.7952   71.1484 O   0  0  0  0  0  0  0  0  0  0  0  0
   37.8761  -62.2454   69.5349 N   0  0  0  0  0  0  0  0  0  0  0  0
   36.9177  -63.0496   68.9919 C   0  0  0  0  0  0  0  0  0  0  0  0
   37.1763  -63.7597   67.7918 N   0  0  0  0  0  0  0  0  0  0  0  0
   35.7087  -63.1721   69.5876 N   0  0  0  0  0  0  0  0  0  0  0  0
   35.4220  -62.4972   70.7184 C   0  0  0  0  0  0  0  0  0  0  0  0
   34.1643  -62.7061   71.3504 N   0  0  0  0  0  0  0  0  0  0  0  0
   33.8276  -62.1317   72.6455 C   0  0  2  0  0  0  0  0  0  0  0  0
   25.7172  -57.0293   74.6053 H   0  0  0  0  0  0  0  0  0  0  0  0
   25.9534  -55.8357   73.2678 H   0  0  0  0  0  0  0  0  0  0  0  0
   24.0469  -58.2294   72.9536 H   0  0  0  0  0  0  0  0  0  0  0  0
   24.8491  -56.1663   71.1485 H   0  0  0  0  0  0  0  0  0  0  0  0
   22.3727  -57.6191   71.3439 H   0  0  0  0  0  0  0  0  0  0  0  0
   23.9090  -54.4238   72.3375 H   0  0  0  0  0  0  0  0  0  0  0  0
   21.4925  -54.2889   71.6215 H   0  0  0  0  0  0  0  0  0  0  0  0
   21.5277  -56.2137   73.1301 H   0  0  0  0  0  0  0  0  0  0  0  0
   19.1996  -54.7034   78.4541 H   0  0  0  0  0  0  0  0  0  0  0  0
   18.3980  -56.9380   77.9904 H   0  0  0  0  0  0  0  0  0  0  0  0
   18.9823  -57.7945   76.5213 H   0  0  0  0  0  0  0  0  0  0  0  0
   28.1864  -61.6808   71.6706 H   0  0  0  0  0  0  0  0  0  0  0  0
   29.5813  -56.3442   73.6528 H   0  0  0  0  0  0  0  0  0  0  0  0
   23.5133  -52.9974   73.9539 H   0  0  0  0  0  0  0  0  0  0  0  0
   30.7647  -59.4095   74.3937 H   0  0  0  0  0  0  0  0  0  0  0  0
   31.3256  -59.0934   72.6854 H   0  0  0  0  0  0  0  0  0  0  0  0
   31.9963  -61.5972   74.3021 H   0  0  0  0  0  0  0  0  0  0  0  0
   33.4073  -59.5961   76.7821 H   0  0  0  0  0  0  0  0  0  0  0  0
   36.1634  -61.0090   76.1073 H   0  0  0  0  0  0  0  0  0  0  0  0
   35.5869  -62.3638   73.9154 H   0  0  0  0  0  0  0  0  0  0  0  0
   36.6335  -60.1307   72.7507 H   0  0  0  0  0  0  0  0  0  0  0  0
   38.8094  -62.1671   69.0702 H   0  0  0  0  0  0  0  0  0  0  0  0
   36.4426  -64.3736   67.3732 H   0  0  0  0  0  0  0  0  0  0  0  0
   38.0999  -63.6792   67.3116 H   0  0  0  0  0  0  0  0  0  0  0  0
   33.4408  -63.2782   70.8589 H   0  0  0  0  0  0  0  0  0  0  0  0
   33.4205  -62.9647   73.2664 H   0  0  0  0  0  0  0  0  0  0  0  0
  4  3  1  0
  2  4  1  1
  5  3  1  0
  6  5  1  0
  7  5  1  0
  7  8  1  0
  9  7  1  0
  9 10  1  0
 11  9  1  0
 11  6  1  0
 13  1  2  0
 14  2  2  0
 15 12  1  0
 16 15  1  0
  1 17  1  6
 18  2  1  0
 19 15  2  0
 20  1  1  0
 21  2  1  0
 21  1  1  0
 22 19  1  0
 23 22  2  0
 24 12  1  0
 24 23  1  0
 25 24  2  0
 26 23  1  0
 27 26  2  0
 28 22  1  0
 11 28  1  0
 28 27  1  0
 29 20  1  0
 30 29  1  0
 31 30  1  0
 32 30  1  0
 33 32  1  0
 34 32  2  0
 35 34  1  0
 36 34  1  0
 36 37  1  0
 38 37  1  0
 39 38  1  0
 40 39  2  0
 41 39  1  0
 42 41  1  0
 43 42  1  0
 44 42  2  0
 45 44  1  0
 45 38  2  0
 46 45  1  0
 47 46  1  0
 47 36  1  0
 47 31  1  0
  3 48  1  0
  3 49  1  0
  5 50  1  6
  7 51  1  6
  8 52  1  0
  9 53  1  1
 10 54  1  0
 11 55  1  6
 12 56  1  0
 16 57  1  0
 16 58  1  0
 17 59  1  0
 18 60  1  0
 27 61  1  0
 29 62  1  0
 29 63  1  0
 30 64  1  1
 33 65  1  0
 35 66  1  0
 36 67  1  1
 37 68  1  0
 41 69  1  0
 43 70  1  0
 43 71  1  0
 46 72  1  0
 47 73  1  1
M  END
