
     RDKit          3D

 15 15  0  0  0  0  0  0  0  0999 V2000
    5.1214  -11.7869   -1.9931 N   0  0  0  0  0  0  0  0  0  0  0  0
    5.2963  -11.5329   -0.6707 C   0  0  0  0  0  0  0  0  0  0  0  0
    5.4666  -12.5925    0.2392 C   0  0  0  0  0  0  0  0  0  0  0  0
    5.4471  -13.9079   -0.2615 C   0  0  0  0  0  0  0  0  0  0  0  0
    5.2529  -14.1372   -1.6206 C   0  0  0  0  0  0  0  0  0  0  0  0
    5.0930  -13.0534   -2.4808 C   0  0  0  0  0  0  0  0  0  0  0  0
    5.6732  -12.3079    1.6790 C   0  0  0  0  0  0  0  0  0  0  0  0
    6.8781  -11.7132    2.1582 N   0  0  0  0  0  0  0  0  0  0  0  0
    4.7680  -12.5923    2.5084 O   0  0  0  0  0  0  0  0  0  0  0  0
    5.3077  -10.5040   -0.3353 H   0  0  0  0  0  0  0  0  0  0  0  0
    5.5937  -14.7711    0.3666 H   0  0  0  0  0  0  0  0  0  0  0  0
    5.2375  -15.1477   -2.0084 H   0  0  0  0  0  0  0  0  0  0  0  0
    4.9491  -13.2184   -3.5402 H   0  0  0  0  0  0  0  0  0  0  0  0
    7.3312  -10.9585    1.5964 H   0  0  0  0  0  0  0  0  0  0  0  0
    7.2912  -11.9131    3.0922 H   0  0  0  0  0  0  0  0  0  0  0  0
  2  1  2  0
  3  2  1  0
  4  3  2  0
  5  4  1  0
  6  5  2  0
  6  1  1  0
  7  3  1  0
  8  7  1  0
  9  7  2  0
  2 10  1  0
  4 11  1  0
  5 12  1  0
  6 13  1  0
  8 14  1  0
  8 15  1  0
M  END
