
     RDKit          3D

 28 29  0  0  0  0  0  0  0  0999 V2000
   35.3821   38.2173   58.0254 N   0  0  0  0  0  0  0  0  0  0  0  0
   33.9813   38.4263   57.6032 C   0  0  0  0  0  0  0  0  0  0  0  0
   33.4463   37.2191   56.7925 C   0  0  2  0  0  0  0  0  0  0  0  0
   32.8468   36.2664   57.6343 O   0  0  0  0  0  0  0  0  0  0  0  0
   34.5452   36.5630   55.9179 C   0  0  1  0  0  0  0  0  0  0  0  0
   33.9814   36.0148   54.7514 O   0  0  0  0  0  0  0  0  0  0  0  0
   35.6427   37.6002   55.5809 C   0  0  2  0  0  0  0  0  0  0  0  0
   36.5955   37.0792   54.6907 O   0  0  0  0  0  0  0  0  0  0  0  0
   36.3229   38.0474   56.8987 C   0  0  1  0  0  0  0  0  0  0  0  0
   37.1622   39.3229   56.8173 C   0  0  1  0  0  0  0  0  0  0  0  0
   36.4630   40.3436   56.1452 O   0  0  0  0  0  0  0  0  0  0  0  0
   37.2807   39.6838   58.2824 C   0  0  0  0  0  0  0  0  0  0  0  0
   35.8907   39.3564   58.8133 C   0  0  0  0  0  0  0  0  0  0  0  0
   33.3379   38.5796   58.4980 H   0  0  0  0  0  0  0  0  0  0  0  0
   33.9025   39.3475   56.9808 H   0  0  0  0  0  0  0  0  0  0  0  0
   32.6463   37.6151   56.1289 H   0  0  0  0  0  0  0  0  0  0  0  0
   32.0857   35.8673   57.1366 H   0  0  0  0  0  0  0  0  0  0  0  0
   35.0182   35.7304   56.4854 H   0  0  0  0  0  0  0  0  0  0  0  0
   34.7120   35.5812   54.2369 H   0  0  0  0  0  0  0  0  0  0  0  0
   35.1630   38.4718   55.0843 H   0  0  0  0  0  0  0  0  0  0  0  0
   37.2416   37.8025   54.4776 H   0  0  0  0  0  0  0  0  0  0  0  0
   37.0156   37.2262   57.1968 H   0  0  0  0  0  0  0  0  0  0  0  0
   38.1552   39.1310   56.3487 H   0  0  0  0  0  0  0  0  0  0  0  0
   35.5896   40.4379   56.6072 H   0  0  0  0  0  0  0  0  0  0  0  0
   38.0448   39.0433   58.7772 H   0  0  0  0  0  0  0  0  0  0  0  0
   37.5381   40.7550   58.4324 H   0  0  0  0  0  0  0  0  0  0  0  0
   35.9474   39.0732   59.8857 H   0  0  0  0  0  0  0  0  0  0  0  0
   35.2443   40.2603   58.7213 H   0  0  0  0  0  0  0  0  0  0  0  0
  2  1  1  0
  3  2  1  0
  3  4  1  0
  5  3  1  0
  5  6  1  0
  7  5  1  0
  7  8  1  0
  9  7  1  0
  9  1  1  0
 10  9  1  0
 10 11  1  0
 12 10  1  0
 13  1  1  0
 13 12  1  0
  2 14  1  0
  2 15  1  0
  3 16  1  6
  4 17  1  0
  5 18  1  1
  6 19  1  0
  7 20  1  6
  8 21  1  0
  9 22  1  1
 10 23  1  6
 11 24  1  0
 12 25  1  0
 12 26  1  0
 13 27  1  0
 13 28  1  0
M  END
