
     RDKit          3D

 28 29  0  0  0  0  0  0  0  0999 V2000
   34.3669   36.7055   57.6884 N   0  0  0  0  0  0  0  0  0  0  0  0
   32.9660   36.9145   57.2662 C   0  0  0  0  0  0  0  0  0  0  0  0
   32.4310   35.7073   56.4555 C   0  0  2  0  0  0  0  0  0  0  0  0
   31.8316   34.7546   57.2973 O   0  0  0  0  0  0  0  0  0  0  0  0
   33.5300   35.0512   55.5809 C   0  0  1  0  0  0  0  0  0  0  0  0
   32.9662   34.5029   54.4143 O   0  0  0  0  0  0  0  0  0  0  0  0
   34.6274   36.0884   55.2439 C   0  0  2  0  0  0  0  0  0  0  0  0
   35.5802   35.5673   54.3537 O   0  0  0  0  0  0  0  0  0  0  0  0
   35.3076   36.5355   56.5616 C   0  0  1  0  0  0  0  0  0  0  0  0
   36.1469   37.8111   56.4803 C   0  0  1  0  0  0  0  0  0  0  0  0
   35.4477   38.8318   55.8081 O   0  0  0  0  0  0  0  0  0  0  0  0
   36.2654   38.1720   57.9454 C   0  0  0  0  0  0  0  0  0  0  0  0
   34.8754   37.8446   58.4763 C   0  0  0  0  0  0  0  0  0  0  0  0
   32.3227   37.0678   58.1610 H   0  0  0  0  0  0  0  0  0  0  0  0
   32.8872   37.8357   56.6438 H   0  0  0  0  0  0  0  0  0  0  0  0
   31.6310   36.1033   55.7919 H   0  0  0  0  0  0  0  0  0  0  0  0
   32.3903   33.9341   57.2625 H   0  0  0  0  0  0  0  0  0  0  0  0
   34.0030   34.2186   56.1484 H   0  0  0  0  0  0  0  0  0  0  0  0
   33.4147   33.6341   54.2407 H   0  0  0  0  0  0  0  0  0  0  0  0
   34.1477   36.9600   54.7473 H   0  0  0  0  0  0  0  0  0  0  0  0
   35.5940   34.5807   54.4648 H   0  0  0  0  0  0  0  0  0  0  0  0
   36.0003   35.7144   56.8597 H   0  0  0  0  0  0  0  0  0  0  0  0
   37.1399   37.6192   56.0117 H   0  0  0  0  0  0  0  0  0  0  0  0
   35.6381   38.7138   54.8411 H   0  0  0  0  0  0  0  0  0  0  0  0
   37.0295   37.5315   58.4402 H   0  0  0  0  0  0  0  0  0  0  0  0
   36.5228   39.2432   58.0954 H   0  0  0  0  0  0  0  0  0  0  0  0
   34.9321   37.5613   59.5487 H   0  0  0  0  0  0  0  0  0  0  0  0
   34.2290   38.7485   58.3843 H   0  0  0  0  0  0  0  0  0  0  0  0
  2  1  1  0
  3  2  1  0
  3  4  1  0
  5  3  1  0
  5  6  1  0
  7  5  1  0
  7  8  1  0
  9  7  1  0
  9  1  1  0
 10  9  1  0
 10 11  1  0
 12 10  1  0
 13  1  1  0
 13 12  1  0
  2 14  1  0
  2 15  1  0
  3 16  1  6
  4 17  1  0
  5 18  1  1
  6 19  1  0
  7 20  1  6
  8 21  1  0
  9 22  1  1
 10 23  1  6
 11 24  1  0
 12 25  1  0
 12 26  1  0
 13 27  1  0
 13 28  1  0
M  END
