
     RDKit          3D

 59 60  0  0  0  0  0  0  0  0999 V2000
   32.5959   49.1106   40.1815 P   0  0  1  0  0  0  0  0  0  0  0  0
   30.5336   47.7268   41.4787 P   0  0  2  0  0  0  0  0  0  0  0  0
   30.2174   43.5965   35.5610 C   0  0  0  0  0  0  0  0  0  0  0  0
   29.6565   42.3309   35.1190 N   0  0  0  0  0  0  0  0  0  0  0  0
   31.0969   43.3585   36.7737 C   0  0  0  0  0  0  0  0  0  0  0  0
   33.7190   50.2647   40.6918 O   0  0  0  0  0  0  0  0  0  0  0  0
   31.4894   44.6789   37.4074 C   0  0  0  0  0  0  0  0  0  0  0  0
   35.2030   51.7655   42.4277 O   0  0  0  0  0  0  0  0  0  0  0  0
   30.9631   44.6903   38.8330 C   0  0  0  0  0  0  0  0  0  0  0  0
   34.0736   54.0039   39.8695 O   0  0  0  0  0  0  0  0  0  0  0  0
   32.1088   44.6227   39.8447 C   0  0  0  0  0  0  0  0  0  0  0  0
   35.9257   54.6884   41.7767 O   0  0  0  0  0  0  0  0  0  0  0  0
   31.9436   45.7092   40.8887 C   0  0  0  0  0  0  0  0  0  0  0  0
   36.4432   52.3414   42.0310 C   0  0  1  0  0  0  0  0  0  0  0  0
   37.3511   51.3021   41.4486 N   0  0  0  0  0  0  0  0  0  0  0  0
   31.6000   49.7121   39.2169 O   0  0  0  0  0  0  0  0  0  0  0  0
   30.1261   47.3859   42.8964 O   0  0  0  0  0  0  0  0  0  0  0  0
   38.6566   51.6155   41.1418 C   0  0  0  0  0  0  0  0  0  0  0  0
   36.1278   53.4883   41.0551 C   0  0  1  0  0  0  0  0  0  0  0  0
   39.0821   52.7945   41.2981 O   0  0  0  0  0  0  0  0  0  0  0  0
   33.4330   47.8626   39.4367 O   0  0  0  0  0  0  0  0  0  0  0  0
   30.7365   46.3362   40.5727 O   0  0  0  0  0  0  0  0  0  0  0  0
   34.8412   52.9890   40.4570 C   0  0  1  0  0  0  0  0  0  0  0  0
   39.5083   50.6514   40.6755 N   0  0  0  0  0  0  0  0  0  0  0  0
   31.9519   48.5963   41.6500 O   0  0  0  0  0  0  0  0  0  0  0  0
   29.3592   48.6056   40.6651 O   0  0  0  0  0  0  0  0  0  0  0  0
   39.1063   49.3599   40.5130 C   0  0  0  0  0  0  0  0  0  0  0  0
   34.1732   52.3850   41.6758 C   0  0  1  0  0  0  0  0  0  0  0  0
   39.9169   48.4892   40.0918 O   0  0  0  0  0  0  0  0  0  0  0  0
   37.7966   49.0088   40.8228 C   0  0  0  0  0  0  0  0  0  0  0  0
   33.0899   51.3814   41.2791 C   0  0  0  0  0  0  0  0  0  0  0  0
   36.9360   49.9963   41.2988 C   0  0  0  0  0  0  0  0  0  0  0  0
   30.8156   44.0450   34.7382 H   0  0  0  0  0  0  0  0  0  0  0  0
   29.3814   44.2878   35.8073 H   0  0  0  0  0  0  0  0  0  0  0  0
   29.6298   41.6601   35.9217 H   0  0  0  0  0  0  0  0  0  0  0  0
   30.2635   41.9227   34.3705 H   0  0  0  0  0  0  0  0  0  0  0  0
   32.0080   42.7930   36.4761 H   0  0  0  0  0  0  0  0  0  0  0  0
   30.5275   42.7468   37.5105 H   0  0  0  0  0  0  0  0  0  0  0  0
   31.0532   45.5426   36.8576 H   0  0  0  0  0  0  0  0  0  0  0  0
   32.5992   44.7624   37.3905 H   0  0  0  0  0  0  0  0  0  0  0  0
   30.3316   45.5990   38.9632 H   0  0  0  0  0  0  0  0  0  0  0  0
   30.3012   43.8116   39.0102 H   0  0  0  0  0  0  0  0  0  0  0  0
   33.3947   53.5615   39.2988 H   0  0  0  0  0  0  0  0  0  0  0  0
   32.0908   43.6328   40.3520 H   0  0  0  0  0  0  0  0  0  0  0  0
   33.1110   44.7223   39.3683 H   0  0  0  0  0  0  0  0  0  0  0  0
   35.9801   55.4279   41.1168 H   0  0  0  0  0  0  0  0  0  0  0  0
   31.9236   45.2814   41.9170 H   0  0  0  0  0  0  0  0  0  0  0  0
   32.8049   46.4083   40.7990 H   0  0  0  0  0  0  0  0  0  0  0  0
   36.9321   52.7565   42.9404 H   0  0  0  0  0  0  0  0  0  0  0  0
   36.9094   53.6192   40.2725 H   0  0  0  0  0  0  0  0  0  0  0  0
   32.7754   47.1253   39.3651 H   0  0  0  0  0  0  0  0  0  0  0  0
   35.0965   52.2109   39.6989 H   0  0  0  0  0  0  0  0  0  0  0  0
   40.4954   50.9101   40.4464 H   0  0  0  0  0  0  0  0  0  0  0  0
   28.5035   48.1741   40.9150 H   0  0  0  0  0  0  0  0  0  0  0  0
   33.7067   53.1861   42.2940 H   0  0  0  0  0  0  0  0  0  0  0  0
   37.4533   47.9872   40.7140 H   0  0  0  0  0  0  0  0  0  0  0  0
   32.3166   51.8830   40.6517 H   0  0  0  0  0  0  0  0  0  0  0  0
   32.5752   51.0392   42.2018 H   0  0  0  0  0  0  0  0  0  0  0  0
   35.9421   49.6851   41.5773 H   0  0  0  0  0  0  0  0  0  0  0  0
  4  3  1  0
  5  3  1  0
  1  6  1  1
  7  5  1  0
  9  7  1  0
 11  9  1  0
 13 11  1  0
 14  8  1  0
 14 15  1  0
 16  1  2  0
 17  2  2  0
 18 15  1  0
 19 14  1  0
 19 12  1  0
 20 18  2  0
 21  1  1  0
  2 22  1  6
 22 13  1  0
 23 19  1  0
 23 10  1  0
 24 18  1  0
 25  2  1  0
 25  1  1  0
 26  2  1  0
 27 24  1  0
 28 23  1  0
 28  8  1  0
 29 27  2  0
 30 27  1  0
 28 31  1  0
 31  6  1  0
 32 15  1  0
 32 30  2  0
  3 33  1  0
  3 34  1  0
  4 35  1  0
  4 36  1  0
  5 37  1  0
  5 38  1  0
  7 39  1  0
  7 40  1  0
  9 41  1  0
  9 42  1  0
 10 43  1  0
 11 44  1  0
 11 45  1  0
 12 46  1  0
 13 47  1  0
 13 48  1  0
 14 49  1  1
 19 50  1  6
 21 51  1  0
 23 52  1  6
 24 53  1  0
 26 54  1  0
 28 55  1  1
 30 56  1  0
 31 57  1  0
 31 58  1  0
 32 59  1  0
M  END
