
     RDKit          3D

 59 60  0  0  0  0  0  0  0  0999 V2000
   30.6538   -0.1055   97.3880 P   0  0  1  0  0  0  0  0  0  0  0  0
   30.7862    0.6248  100.0681 P   0  0  2  0  0  0  0  0  0  0  0  0
   25.6240    1.0661  104.7625 C   0  0  0  0  0  0  0  0  0  0  0  0
   24.5670    1.8737  105.3387 N   0  0  0  0  0  0  0  0  0  0  0  0
   25.4376    1.0206  103.2585 C   0  0  0  0  0  0  0  0  0  0  0  0
   31.7452   -0.8115   96.3071 O   0  0  0  0  0  0  0  0  0  0  0  0
   26.3297   -0.0649  102.6768 C   0  0  0  0  0  0  0  0  0  0  0  0
   33.1852   -0.8257   93.9217 O   0  0  0  0  0  0  0  0  0  0  0  0
   26.5972    0.2463  101.2200 C   0  0  0  0  0  0  0  0  0  0  0  0
   32.4205    2.5903   94.6766 O   0  0  0  0  0  0  0  0  0  0  0  0
   27.2857   -0.9425  100.5300 C   0  0  0  0  0  0  0  0  0  0  0  0
   33.4147    1.7600   92.2732 O   0  0  0  0  0  0  0  0  0  0  0  0
   28.8018   -0.8756  100.6628 C   0  0  0  0  0  0  0  0  0  0  0  0
   32.5204   -0.4506   92.7197 C   0  0  1  0  0  0  0  0  0  0  0  0
   31.2608   -1.2475   92.5493 N   0  0  0  0  0  0  0  0  0  0  0  0
   30.4149    1.3412   97.0283 O   0  0  0  0  0  0  0  0  0  0  0  0
   31.5372    0.2418  101.3248 O   0  0  0  0  0  0  0  0  0  0  0  0
   30.5118   -1.1482   91.3979 C   0  0  0  0  0  0  0  0  0  0  0  0
   32.2876    1.0731   92.7843 C   0  0  1  0  0  0  0  0  0  0  0  0
   30.8516   -0.3468   90.4834 O   0  0  0  0  0  0  0  0  0  0  0  0
   29.2032   -0.9458   97.3294 O   0  0  0  0  0  0  0  0  0  0  0  0
   29.1416    0.4114  100.2399 O   0  0  0  0  0  0  0  0  0  0  0  0
   32.1699    1.2712   94.2701 C   0  0  1  0  0  0  0  0  0  0  0  0
   29.3961   -1.9241   91.2296 N   0  0  0  0  0  0  0  0  0  0  0  0
   31.4174   -0.3502   98.8684 O   0  0  0  0  0  0  0  0  0  0  0  0
   30.9458    2.2506   99.6772 O   0  0  0  0  0  0  0  0  0  0  0  0
   28.9997   -2.8223   92.1744 C   0  0  0  0  0  0  0  0  0  0  0  0
   33.2180    0.3036   94.7795 C   0  0  1  0  0  0  0  0  0  0  0  0
   27.9697   -3.5278   91.9925 O   0  0  0  0  0  0  0  0  0  0  0  0
   29.7445   -2.9605   93.3376 C   0  0  0  0  0  0  0  0  0  0  0  0
   32.9521   -0.0792   96.2388 C   0  0  0  0  0  0  0  0  0  0  0  0
   30.8794   -2.1713   93.4990 C   0  0  0  0  0  0  0  0  0  0  0  0
   26.6195    1.4948  105.0189 H   0  0  0  0  0  0  0  0  0  0  0  0
   25.5568    0.0380  105.1848 H   0  0  0  0  0  0  0  0  0  0  0  0
   23.6710    1.6389  104.8518 H   0  0  0  0  0  0  0  0  0  0  0  0
   24.7715    2.8742  105.1129 H   0  0  0  0  0  0  0  0  0  0  0  0
   24.3768    0.7980  103.0053 H   0  0  0  0  0  0  0  0  0  0  0  0
   25.6953    2.0229  102.8474 H   0  0  0  0  0  0  0  0  0  0  0  0
   25.8234   -1.0494  102.7910 H   0  0  0  0  0  0  0  0  0  0  0  0
   27.3066   -0.1031  103.2092 H   0  0  0  0  0  0  0  0  0  0  0  0
   27.1446    1.2074  101.1191 H   0  0  0  0  0  0  0  0  0  0  0  0
   25.6169    0.3919  100.7127 H   0  0  0  0  0  0  0  0  0  0  0  0
   31.9817    2.7124   95.5567 H   0  0  0  0  0  0  0  0  0  0  0  0
   26.9162   -1.9165  100.9189 H   0  0  0  0  0  0  0  0  0  0  0  0
   27.0284   -0.9142   99.4492 H   0  0  0  0  0  0  0  0  0  0  0  0
   33.1196    2.6890   92.0858 H   0  0  0  0  0  0  0  0  0  0  0  0
   29.2511   -1.6695  100.0231 H   0  0  0  0  0  0  0  0  0  0  0  0
   29.1050   -1.0235  101.7220 H   0  0  0  0  0  0  0  0  0  0  0  0
   33.1952   -0.6829   91.8662 H   0  0  0  0  0  0  0  0  0  0  0  0
   31.3563    1.3892   92.2618 H   0  0  0  0  0  0  0  0  0  0  0  0
   29.2539   -1.5893   98.0807 H   0  0  0  0  0  0  0  0  0  0  0  0
   31.1405    0.9644   94.5695 H   0  0  0  0  0  0  0  0  0  0  0  0
   28.8372   -1.8299   90.3507 H   0  0  0  0  0  0  0  0  0  0  0  0
   31.9113    2.3715   99.4923 H   0  0  0  0  0  0  0  0  0  0  0  0
   34.2281    0.7692   94.7150 H   0  0  0  0  0  0  0  0  0  0  0  0
   29.4616   -3.6778   94.0985 H   0  0  0  0  0  0  0  0  0  0  0  0
   32.9965    0.8317   96.8806 H   0  0  0  0  0  0  0  0  0  0  0  0
   33.7748   -0.7426   96.5798 H   0  0  0  0  0  0  0  0  0  0  0  0
   31.4629   -2.3418   94.3895 H   0  0  0  0  0  0  0  0  0  0  0  0
  4  3  1  0
  5  3  1  0
  1  6  1  6
  7  5  1  0
  9  7  1  0
 11  9  1  0
 13 11  1  0
 14  8  1  0
 14 15  1  0
 16  1  2  0
 17  2  2  0
 18 15  1  0
 19 14  1  0
 19 12  1  0
 20 18  2  0
 21  1  1  0
 22 13  1  0
  2 22  1  1
 23 19  1  0
 23 10  1  0
 24 18  1  0
 25  1  1  0
 25  2  1  0
 26  2  1  0
 27 24  1  0
 28 23  1  0
 28  8  1  0
 29 27  2  0
 30 27  1  0
 31  6  1  0
 28 31  1  0
 32 15  1  0
 32 30  2  0
  3 33  1  0
  3 34  1  0
  4 35  1  0
  4 36  1  0
  5 37  1  0
  5 38  1  0
  7 39  1  0
  7 40  1  0
  9 41  1  0
  9 42  1  0
 10 43  1  0
 11 44  1  0
 11 45  1  0
 12 46  1  0
 13 47  1  0
 13 48  1  0
 14 49  1  6
 19 50  1  6
 21 51  1  0
 23 52  1  1
 24 53  1  0
 26 54  1  0
 28 55  1  1
 30 56  1  0
 31 57  1  0
 31 58  1  0
 32 59  1  0
M  END
