
     RDKit          3D

 32 33  0  0  0  0  0  0  0  0999 V2000
   13.9432    2.5778   49.3845 N   0  0  0  0  0  0  0  0  0  0  0  0
   13.9971    2.1787   50.6789 C   0  0  0  0  0  0  0  0  0  0  0  0
   12.8776    1.5209   51.2505 N   0  0  0  0  0  0  0  0  0  0  0  0
   15.1149    2.4054   51.4253 N   0  0  0  0  0  0  0  0  0  0  0  0
   16.1922    3.0355   50.8908 C   0  0  0  0  0  0  0  0  0  0  0  0
   16.1436    3.4650   49.5669 C   0  0  0  0  0  0  0  0  0  0  0  0
   17.2175    3.2401   51.5947 O   0  0  0  0  0  0  0  0  0  0  0  0
   17.2069    4.2042   48.9760 N   0  0  0  0  0  0  0  0  0  0  0  0
   16.8804    5.0782   47.8512 C   0  0  2  0  0  0  0  0  0  0  0  0
   16.0497    4.2923   46.8100 C   0  0  0  0  0  0  0  0  0  0  0  0
   14.9928    3.2100   48.8168 C   0  0  0  0  0  0  0  0  0  0  0  0
   14.9169    3.6392   47.4588 N   0  0  0  0  0  0  0  0  0  0  0  0
   18.1537    5.7165   47.2681 C   0  0  1  0  0  0  0  0  0  0  0  0
   19.0682    4.7095   46.9026 O   0  0  0  0  0  0  0  0  0  0  0  0
   17.8283    6.6063   46.0493 C   0  0  1  0  0  0  0  0  0  0  0  0
   17.7215    7.9516   46.4562 O   0  0  0  0  0  0  0  0  0  0  0  0
   18.8988    6.4737   44.9671 C   0  0  0  0  0  0  0  0  0  0  0  0
   12.2081    0.9959   50.6451 H   0  0  0  0  0  0  0  0  0  0  0  0
   12.7077    1.5522   52.2803 H   0  0  0  0  0  0  0  0  0  0  0  0
   15.1456    2.0901   52.4217 H   0  0  0  0  0  0  0  0  0  0  0  0
   18.1412    4.2529   49.4424 H   0  0  0  0  0  0  0  0  0  0  0  0
   16.2347    5.8970   48.2419 H   0  0  0  0  0  0  0  0  0  0  0  0
   16.6813    3.5193   46.3218 H   0  0  0  0  0  0  0  0  0  0  0  0
   15.6479    4.9732   46.0316 H   0  0  0  0  0  0  0  0  0  0  0  0
   14.0638    3.4211   46.8963 H   0  0  0  0  0  0  0  0  0  0  0  0
   18.5954    6.3734   48.0574 H   0  0  0  0  0  0  0  0  0  0  0  0
   18.5431    3.9066   46.6477 H   0  0  0  0  0  0  0  0  0  0  0  0
   16.8723    6.2668   45.5894 H   0  0  0  0  0  0  0  0  0  0  0  0
   18.0207    8.5082   45.6904 H   0  0  0  0  0  0  0  0  0  0  0  0
   19.8623    6.9029   45.3151 H   0  0  0  0  0  0  0  0  0  0  0  0
   18.5803    6.9986   44.0411 H   0  0  0  0  0  0  0  0  0  0  0  0
   19.0632    5.4016   44.7279 H   0  0  0  0  0  0  0  0  0  0  0  0
  2  1  2  0
  3  2  1  0
  4  2  1  0
  5  4  1  0
  6  5  1  0
  7  5  2  0
  8  6  1  0
  9  8  1  0
  9 10  1  0
 11  6  2  0
 11  1  1  0
 12 11  1  0
 12 10  1  0
 13  9  1  0
 13 14  1  0
 15 13  1  0
 16 15  1  0
 15 17  1  0
  3 18  1  0
  3 19  1  0
  4 20  1  0
  8 21  1  0
  9 22  1  1
 10 23  1  0
 10 24  1  0
 12 25  1  0
 13 26  1  1
 14 27  1  0
 15 28  1  6
 16 29  1  0
 17 30  1  0
 17 31  1  0
 17 32  1  0
M  END
