
     RDKit          3D

 51 53  0  0  0  0  0  0  0  0999 V2000
  -19.0007   15.0134    3.4336 N   0  0  0  0  0  0  0  0  0  0  0  0
  -19.1922   13.8535    4.1016 C   0  0  0  0  0  0  0  0  0  0  0  0
  -18.1382   15.9591    3.8960 C   0  0  0  0  0  0  0  0  0  0  0  0
  -18.5314   13.6207    5.2517 N   0  0  0  0  0  0  0  0  0  0  0  0
  -17.6804   14.5272    5.7878 C   0  0  0  0  0  0  0  0  0  0  0  0
  -17.4280   15.7641    5.1126 C   0  0  0  0  0  0  0  0  0  0  0  0
  -16.5061   16.7849    5.5428 C   0  0  0  0  0  0  0  0  0  0  0  0
  -16.3595   17.9670    4.7571 C   0  0  0  0  0  0  0  0  0  0  0  0
  -17.0723   18.0948    3.5604 C   0  0  0  0  0  0  0  0  0  0  0  0
  -17.9530   17.1165    3.1442 C   0  0  0  0  0  0  0  0  0  0  0  0
  -15.3955   19.0926    5.1043 C   0  0  0  0  0  0  0  0  0  0  0  0
  -15.6893   19.6927    6.4046 N   0  0  0  0  0  0  0  0  0  0  0  0
  -16.8576   20.4719    6.6893 C   0  0  0  0  0  0  0  0  0  0  0  0
  -17.0518   21.0890    7.9367 C   0  0  0  0  0  0  0  0  0  0  0  0
  -18.1872   21.8696    8.1676 C   0  0  0  0  0  0  0  0  0  0  0  0
  -19.1580   21.9947    7.1741 C   0  0  0  0  0  0  0  0  0  0  0  0
  -18.9775   21.3932    5.9321 C   0  0  0  0  0  0  0  0  0  0  0  0
  -17.8252   20.6307    5.6894 C   0  0  0  0  0  0  0  0  0  0  0  0
  -15.6779   16.6409    6.8015 C   0  0  0  0  0  0  0  0  0  0  0  0
  -18.3793   22.5314    9.3787 O   0  0  0  0  0  0  0  0  0  0  0  0
  -20.2976   22.7553    7.4165 O   0  0  0  0  0  0  0  0  0  0  0  0
  -19.9543   21.6039    4.9588 O   0  0  0  0  0  0  0  0  0  0  0  0
  -17.3880   23.3839    9.9348 C   0  0  0  0  0  0  0  0  0  0  0  0
  -21.5233   22.1313    7.7688 C   0  0  0  0  0  0  0  0  0  0  0  0
  -19.6897   21.5727    3.5650 C   0  0  0  0  0  0  0  0  0  0  0  0
  -20.0949   12.8770    3.6022 N   0  0  0  0  0  0  0  0  0  0  0  0
  -17.1197   14.1873    7.0474 N   0  0  0  0  0  0  0  0  0  0  0  0
  -19.5226   15.1707    2.5406 H   0  0  0  0  0  0  0  0  0  0  0  0
  -16.9453   18.9661    2.9291 H   0  0  0  0  0  0  0  0  0  0  0  0
  -18.4895   17.2591    2.2137 H   0  0  0  0  0  0  0  0  0  0  0  0
  -14.3584   18.6942    5.0988 H   0  0  0  0  0  0  0  0  0  0  0  0
  -15.4039   19.8961    4.3359 H   0  0  0  0  0  0  0  0  0  0  0  0
  -14.9763   19.5720    7.1598 H   0  0  0  0  0  0  0  0  0  0  0  0
  -16.3588   20.9441    8.7453 H   0  0  0  0  0  0  0  0  0  0  0  0
  -17.6765   20.1593    4.7272 H   0  0  0  0  0  0  0  0  0  0  0  0
  -16.2865   16.1846    7.6091 H   0  0  0  0  0  0  0  0  0  0  0  0
  -15.2818   17.5980    7.1818 H   0  0  0  0  0  0  0  0  0  0  0  0
  -14.7526   16.0675    6.6005 H   0  0  0  0  0  0  0  0  0  0  0  0
  -17.0983   24.1627    9.1977 H   0  0  0  0  0  0  0  0  0  0  0  0
  -17.8001   23.8794   10.8375 H   0  0  0  0  0  0  0  0  0  0  0  0
  -16.4932   22.7973   10.2303 H   0  0  0  0  0  0  0  0  0  0  0  0
  -21.8570   21.4521    6.9560 H   0  0  0  0  0  0  0  0  0  0  0  0
  -22.2968   22.9106    7.9257 H   0  0  0  0  0  0  0  0  0  0  0  0
  -21.3982   21.5534    8.7091 H   0  0  0  0  0  0  0  0  0  0  0  0
  -19.4663   20.5352    3.2399 H   0  0  0  0  0  0  0  0  0  0  0  0
  -18.8369   22.2416    3.3212 H   0  0  0  0  0  0  0  0  0  0  0  0
  -20.5882   21.9252    3.0183 H   0  0  0  0  0  0  0  0  0  0  0  0
  -20.1441   12.6793    2.5780 H   0  0  0  0  0  0  0  0  0  0  0  0
  -20.7195   12.3452    4.2481 H   0  0  0  0  0  0  0  0  0  0  0  0
  -16.4116   13.4215    7.0994 H   0  0  0  0  0  0  0  0  0  0  0  0
  -17.6498   14.3795    7.9240 H   0  0  0  0  0  0  0  0  0  0  0  0
  2  1  2  0
  3  1  1  0
  4  2  1  0
  5  4  2  0
  6  5  1  0
  6  3  2  0
  7  6  1  0
  8  7  2  0
  9  8  1  0
 10  3  1  0
 10  9  2  0
 11  8  1  0
 12 11  1  0
 13 12  1  0
 14 13  2  0
 15 14  1  0
 16 15  2  0
 17 16  1  0
 18 13  1  0
 18 17  2  0
 19  7  1  0
 20 15  1  0
 21 16  1  0
 22 17  1  0
 23 20  1  0
 24 21  1  0
 25 22  1  0
 26  2  1  0
 27  5  1  0
  1 28  1  0
  9 29  1  0
 10 30  1  0
 11 31  1  0
 11 32  1  0
 12 33  1  0
 14 34  1  0
 18 35  1  0
 19 36  1  0
 19 37  1  0
 19 38  1  0
 23 39  1  0
 23 40  1  0
 23 41  1  0
 24 42  1  0
 24 43  1  0
 24 44  1  0
 25 45  1  0
 25 46  1  0
 25 47  1  0
 26 48  1  0
 26 49  1  0
 27 50  1  0
 27 51  1  0
M  CHG  1   1   1
M  END
