
     RDKit          3D

 26 25  0  0  0  0  0  0  0  0999 V2000
  -13.5212   41.9178  -18.4398 C   0  0  0  0  0  0  0  0  0  0  0  0
  -12.7983   42.3921  -19.3569 O   0  0  0  0  0  0  0  0  0  0  0  0
  -15.0009   41.8064  -18.6077 C   0  0  0  0  0  0  0  0  0  0  0  0
  -12.9517   41.4689  -17.2637 O   0  0  0  0  0  0  0  0  0  0  0  0
  -15.3850   41.2407  -19.9852 C   0  0  0  0  0  0  0  0  0  0  0  0
  -14.9516   42.1220  -21.1665 C   0  0  0  0  0  0  0  0  0  0  0  0
  -15.3617   41.5727  -22.5443 C   0  0  0  0  0  0  0  0  0  0  0  0
  -14.7127   40.2254  -22.8538 C   0  0  0  0  0  0  0  0  0  0  0  0
  -15.3960   39.5581  -24.0574 C   0  0  0  0  0  0  0  0  0  0  0  0
  -15.1897   38.0492  -24.0275 C   0  0  0  0  0  0  0  0  0  0  0  0
  -15.4919   42.7743  -18.3891 H   0  0  0  0  0  0  0  0  0  0  0  0
  -15.3807   41.1032  -17.8355 H   0  0  0  0  0  0  0  0  0  0  0  0
  -11.9504   41.5202  -17.1187 H   0  0  0  0  0  0  0  0  0  0  0  0
  -16.4871   41.1039  -20.0196 H   0  0  0  0  0  0  0  0  0  0  0  0
  -14.9272   40.2341  -20.1043 H   0  0  0  0  0  0  0  0  0  0  0  0
  -13.8494   42.2633  -21.1253 H   0  0  0  0  0  0  0  0  0  0  0  0
  -15.3929   43.1337  -21.0387 H   0  0  0  0  0  0  0  0  0  0  0  0
  -16.4580   41.5135  -22.6718 H   0  0  0  0  0  0  0  0  0  0  0  0
  -15.0040   42.2967  -23.3096 H   0  0  0  0  0  0  0  0  0  0  0  0
  -14.8067   39.5845  -21.9495 H   0  0  0  0  0  0  0  0  0  0  0  0
  -13.6299   40.3564  -23.0720 H   0  0  0  0  0  0  0  0  0  0  0  0
  -16.4924   39.7461  -24.0518 H   0  0  0  0  0  0  0  0  0  0  0  0
  -14.9822   39.9751  -25.0012 H   0  0  0  0  0  0  0  0  0  0  0  0
  -15.6534   37.5930  -24.9274 H   0  0  0  0  0  0  0  0  0  0  0  0
  -14.1050   37.8090  -24.0274 H   0  0  0  0  0  0  0  0  0  0  0  0
  -15.6650   37.6096  -23.1245 H   0  0  0  0  0  0  0  0  0  0  0  0
  2  1  2  0
  3  1  1  0
  4  1  1  0
  5  3  1  0
  6  5  1  0
  7  6  1  0
  8  7  1  0
  9  8  1  0
 10  9  1  0
  3 11  1  0
  3 12  1  0
  4 13  1  0
  5 14  1  0
  5 15  1  0
  6 16  1  0
  6 17  1  0
  7 18  1  0
  7 19  1  0
  8 20  1  0
  8 21  1  0
  9 22  1  0
  9 23  1  0
 10 24  1  0
 10 25  1  0
 10 26  1  0
M  END
