
     RDKit          3D

 49 51  0  0  0  0  0  0  0  0999 V2000
  -11.0081    2.9082    0.4193 P   0  0  2  0  0  0  0  0  0  0  0  0
   -8.4831    2.9338    2.0401 P   0  0  2  0  0  0  0  0  0  0  0  0
   -6.0184    3.0648    3.3486 P   0  0  0  0  0  0  0  0  0  0  0  0
  -10.5697    0.6263   -0.6386 C   0  0  0  0  0  0  0  0  0  0  0  0
  -11.5903    1.4127   -0.0823 O   0  0  0  0  0  0  0  0  0  0  0  0
  -10.9170   -0.8372   -0.3684 C   0  0  1  0  0  0  0  0  0  0  0  0
  -10.0498   -1.4016    0.5924 O   0  0  0  0  0  0  0  0  0  0  0  0
  -12.3269   -1.0509    0.2077 C   0  0  1  0  0  0  0  0  0  0  0  0
  -13.3582   -0.9904   -0.7490 O   0  0  0  0  0  0  0  0  0  0  0  0
  -12.1928   -2.4064    0.8973 C   0  0  1  0  0  0  0  0  0  0  0  0
  -12.8627   -3.4263    0.1906 O   0  0  0  0  0  0  0  0  0  0  0  0
  -10.6671   -2.6303    0.9081 C   0  0  2  0  0  0  0  0  0  0  0  0
  -10.1066   -2.4774    6.1264 N   0  0  0  0  0  0  0  0  0  0  0  0
  -11.5439    3.1419    1.8114 O   0  0  0  0  0  0  0  0  0  0  0  0
   -8.8173    1.7463    2.9146 O   0  0  0  0  0  0  0  0  0  0  0  0
   -6.4946    1.9714    4.2770 O   0  0  0  0  0  0  0  0  0  0  0  0
  -10.8462   -1.6312    5.3406 C   0  0  0  0  0  0  0  0  0  0  0  0
  -11.5353    4.1194   -0.6157 O   0  0  0  0  0  0  0  0  0  0  0  0
   -9.0049    4.3622    2.7542 O   0  0  0  0  0  0  0  0  0  0  0  0
   -4.4257    2.7844    2.9136 O   0  0  0  0  0  0  0  0  0  0  0  0
   -9.2064    2.8075    0.3926 C   0  0  0  0  0  0  0  0  0  0  0  0
  -10.9090   -1.7992    3.9829 N   0  0  0  0  0  0  0  0  0  0  0  0
   -6.8235    3.1195    1.8640 O   0  0  0  0  0  0  0  0  0  0  0  0
   -6.1075    4.5527    4.1170 O   0  0  0  0  0  0  0  0  0  0  0  0
  -10.2180   -2.8343    3.4453 C   0  0  0  0  0  0  0  0  0  0  0  0
   -9.4797   -3.6867    4.2054 C   0  0  0  0  0  0  0  0  0  0  0  0
   -9.4110   -3.5149    5.5835 C   0  0  0  0  0  0  0  0  0  0  0  0
   -8.6424   -4.3790    6.4130 N   0  0  0  0  0  0  0  0  0  0  0  0
   -8.8887   -4.6216    3.4386 N   0  0  0  0  0  0  0  0  0  0  0  0
   -9.3071   -4.2919    2.1907 C   0  0  0  0  0  0  0  0  0  0  0  0
  -10.1293   -3.2074    2.1521 N   0  0  0  0  0  0  0  0  0  0  0  0
   -9.5672    0.8340   -0.2038 H   0  0  0  0  0  0  0  0  0  0  0  0
  -10.5314    0.7930   -1.7377 H   0  0  0  0  0  0  0  0  0  0  0  0
  -10.7940   -1.3862   -1.3334 H   0  0  0  0  0  0  0  0  0  0  0  0
  -12.5532   -0.3053    0.9997 H   0  0  0  0  0  0  0  0  0  0  0  0
  -14.1835   -0.6627   -0.3073 H   0  0  0  0  0  0  0  0  0  0  0  0
  -12.6031   -2.3550    1.9287 H   0  0  0  0  0  0  0  0  0  0  0  0
  -13.0724   -3.0994   -0.7231 H   0  0  0  0  0  0  0  0  0  0  0  0
  -10.4087   -3.3372    0.0830 H   0  0  0  0  0  0  0  0  0  0  0  0
  -11.3871   -0.8157    5.8004 H   0  0  0  0  0  0  0  0  0  0  0  0
  -11.9761    3.6401   -1.3620 H   0  0  0  0  0  0  0  0  0  0  0  0
   -8.9892    5.0325    2.0251 H   0  0  0  0  0  0  0  0  0  0  0  0
   -3.8891    3.3031    3.5649 H   0  0  0  0  0  0  0  0  0  0  0  0
   -8.9286    1.8323   -0.0464 H   0  0  0  0  0  0  0  0  0  0  0  0
   -8.8042    3.6170   -0.2505 H   0  0  0  0  0  0  0  0  0  0  0  0
   -6.8457    5.0287    3.6596 H   0  0  0  0  0  0  0  0  0  0  0  0
   -8.0953   -5.1698    6.0056 H   0  0  0  0  0  0  0  0  0  0  0  0
   -8.6177   -4.2298    7.4461 H   0  0  0  0  0  0  0  0  0  0  0  0
   -9.0038   -4.8442    1.3103 H   0  0  0  0  0  0  0  0  0  0  0  0
  5  4  1  0
  1  5  1  6
  6  4  1  0
  7  6  1  0
  8  6  1  0
  8  9  1  0
 10  8  1  0
 10 11  1  0
 12 10  1  0
 12  7  1  0
 14  1  2  0
 15  2  2  0
 16  3  2  0
 17 13  2  0
 18  1  1  0
  2 19  1  1
 20  3  1  0
 21  1  1  0
 21  2  1  0
 22 17  1  0
 23  3  1  0
 23  2  1  0
 24  3  1  0
 25 22  2  0
 26 25  1  0
 27 26  2  0
 27 13  1  0
 28 27  1  0
 29 26  1  0
 30 29  2  0
 31 30  1  0
 31 25  1  0
 12 31  1  0
  4 32  1  0
  4 33  1  0
  6 34  1  6
  8 35  1  1
  9 36  1  0
 10 37  1  1
 11 38  1  0
 12 39  1  6
 17 40  1  0
 18 41  1  0
 19 42  1  0
 20 43  1  0
 21 44  1  0
 21 45  1  0
 24 46  1  0
 28 47  1  0
 28 48  1  0
 30 49  1  0
M  END
