
     RDKit          3D

 49 51  0  0  0  0  0  0  0  0999 V2000
  -11.7693    1.9461    2.7084 P   0  0  2  0  0  0  0  0  0  0  0  0
   -9.2325    2.0874    4.3047 P   0  0  2  0  0  0  0  0  0  0  0  0
   -7.1206    0.2589    4.3310 P   0  0  0  0  0  0  0  0  0  0  0  0
  -12.2756    0.1559    0.9600 C   0  0  0  0  0  0  0  0  0  0  0  0
  -12.6077    0.5585    2.2627 O   0  0  0  0  0  0  0  0  0  0  0  0
  -12.4162   -1.3646    0.8980 C   0  0  1  0  0  0  0  0  0  0  0  0
  -11.2155   -2.0067    1.2720 O   0  0  0  0  0  0  0  0  0  0  0  0
  -13.4764   -1.9357    1.8547 C   0  0  1  0  0  0  0  0  0  0  0  0
  -14.8011   -1.8019    1.3968 O   0  0  0  0  0  0  0  0  0  0  0  0
  -13.0160   -3.3817    2.0223 C   0  0  1  0  0  0  0  0  0  0  0  0
  -13.8569   -4.2852    1.3405 O   0  0  0  0  0  0  0  0  0  0  0  0
  -11.5982   -3.3569    1.4163 C   0  0  2  0  0  0  0  0  0  0  0  0
   -9.0521   -4.4263    5.8819 N   0  0  0  0  0  0  0  0  0  0  0  0
  -12.3125    2.3735    4.0507 O   0  0  0  0  0  0  0  0  0  0  0  0
   -9.7582    1.3944    5.5416 O   0  0  0  0  0  0  0  0  0  0  0  0
   -8.0164   -0.7301    3.6212 O   0  0  0  0  0  0  0  0  0  0  0  0
  -10.0812   -3.5385    5.6991 C   0  0  0  0  0  0  0  0  0  0  0  0
  -12.0030    3.1614    1.5749 O   0  0  0  0  0  0  0  0  0  0  0  0
   -9.4462    3.7498    4.4197 O   0  0  0  0  0  0  0  0  0  0  0  0
   -5.5840    0.2087    3.6672 O   0  0  0  0  0  0  0  0  0  0  0  0
  -10.0223    1.5013    2.7927 C   0  0  0  0  0  0  0  0  0  0  0  0
  -10.6610   -3.3696    4.4699 N   0  0  0  0  0  0  0  0  0  0  0  0
   -7.5750    1.8749    4.1388 O   0  0  0  0  0  0  0  0  0  0  0  0
   -7.0114   -0.1279    5.9591 O   0  0  0  0  0  0  0  0  0  0  0  0
  -10.1840   -4.1148    3.4426 C   0  0  0  0  0  0  0  0  0  0  0  0
   -9.1659   -5.0023    3.6014 C   0  0  0  0  0  0  0  0  0  0  0  0
   -8.5730   -5.1717    4.8477 C   0  0  0  0  0  0  0  0  0  0  0  0
   -7.4992   -6.0829    5.0534 N   0  0  0  0  0  0  0  0  0  0  0  0
   -8.8755   -5.6103    2.4363 N   0  0  0  0  0  0  0  0  0  0  0  0
   -9.7640   -5.0496    1.5778 C   0  0  0  0  0  0  0  0  0  0  0  0
  -10.5891   -4.1340    2.1562 N   0  0  0  0  0  0  0  0  0  0  0  0
  -11.2362    0.4234    0.6679 H   0  0  0  0  0  0  0  0  0  0  0  0
  -12.9862    0.6155    0.2381 H   0  0  0  0  0  0  0  0  0  0  0  0
  -12.6527   -1.6284   -0.1613 H   0  0  0  0  0  0  0  0  0  0  0  0
  -13.4123   -1.4571    2.8554 H   0  0  0  0  0  0  0  0  0  0  0  0
  -14.8196   -1.9747    0.4204 H   0  0  0  0  0  0  0  0  0  0  0  0
  -12.9928   -3.6552    3.0990 H   0  0  0  0  0  0  0  0  0  0  0  0
  -14.4229   -3.7778    0.7019 H   0  0  0  0  0  0  0  0  0  0  0  0
  -11.6476   -3.7852    0.3860 H   0  0  0  0  0  0  0  0  0  0  0  0
  -10.4395   -2.9599    6.5393 H   0  0  0  0  0  0  0  0  0  0  0  0
  -12.9858    3.2712    1.5209 H   0  0  0  0  0  0  0  0  0  0  0  0
   -9.0712    4.1141    3.5784 H   0  0  0  0  0  0  0  0  0  0  0  0
   -5.4263    1.1235    3.3215 H   0  0  0  0  0  0  0  0  0  0  0  0
   -9.9517    0.3992    2.7560 H   0  0  0  0  0  0  0  0  0  0  0  0
   -9.4945    1.9231    1.9127 H   0  0  0  0  0  0  0  0  0  0  0  0
   -6.4462    0.5853    6.3501 H   0  0  0  0  0  0  0  0  0  0  0  0
   -7.1232   -6.6579    4.2670 H   0  0  0  0  0  0  0  0  0  0  0  0
   -7.0732   -6.1866    6.0010 H   0  0  0  0  0  0  0  0  0  0  0  0
   -9.8016   -5.3093    0.5273 H   0  0  0  0  0  0  0  0  0  0  0  0
  5  4  1  0
  1  5  1  6
  6  4  1  0
  7  6  1  0
  8  6  1  0
  8  9  1  0
 10  8  1  0
 10 11  1  0
 12 10  1  0
 12  7  1  0
 14  1  2  0
 15  2  2  0
 16  3  2  0
 17 13  2  0
 18  1  1  0
  2 19  1  1
 20  3  1  0
 21  1  1  0
 21  2  1  0
 22 17  1  0
 23  3  1  0
 23  2  1  0
 24  3  1  0
 25 22  2  0
 26 25  1  0
 27 26  2  0
 27 13  1  0
 28 27  1  0
 29 26  1  0
 30 29  2  0
 31 30  1  0
 31 25  1  0
 12 31  1  0
  4 32  1  0
  4 33  1  0
  6 34  1  6
  8 35  1  1
  9 36  1  0
 10 37  1  1
 11 38  1  0
 12 39  1  6
 17 40  1  0
 18 41  1  0
 19 42  1  0
 20 43  1  0
 21 44  1  0
 21 45  1  0
 24 46  1  0
 28 47  1  0
 28 48  1  0
 30 49  1  0
M  END
