
     RDKit          3D

 60 62  0  0  0  0  0  0  0  0999 V2000
    3.9814   20.0742   10.5613 P   0  0  1  0  0  0  0  0  0  0  0  0
    4.6049   19.8398   13.3894 P   0  0  2  0  0  0  0  0  0  0  0  0
    0.5231   21.4250   16.7020 C   0  0  0  0  0  0  0  0  0  0  0  0
    1.2535   22.6222   16.6535 O   0  0  0  0  0  0  0  0  0  0  0  0
    1.2041   20.3358   15.8515 C   0  0  1  0  0  0  0  0  0  0  0  0
    2.5158   20.0414   16.3673 O   0  0  0  0  0  0  0  0  0  0  0  0
    0.3172   19.0640   15.8149 C   0  0  1  0  0  0  0  0  0  0  0  0
   -0.8924   19.3615   15.1592 O   0  0  0  0  0  0  0  0  0  0  0  0
    1.0372   17.9115   15.0863 C   0  0  2  0  0  0  0  0  0  0  0  0
    0.2825   16.7320   15.2112 O   0  0  0  0  0  0  0  0  0  0  0  0
    2.4500   17.7352   15.6820 C   0  0  1  0  0  0  0  0  0  0  0  0
    3.1356   16.6935   15.0322 O   0  0  0  0  0  0  0  0  0  0  0  0
    3.1966   19.0880   15.5403 C   0  0  1  0  0  0  0  0  0  0  0  0
    0.7375   18.3304    7.6061 C   0  0  1  0  0  0  0  0  0  0  0  0
    0.2767   19.5547    6.8939 N   0  0  0  0  0  0  0  0  0  0  0  0
    4.4379   21.1487    9.6042 O   0  0  0  0  0  0  0  0  0  0  0  0
    5.5311   20.6878   14.2256 O   0  0  0  0  0  0  0  0  0  0  0  0
    0.6116   20.8090    7.3618 C   0  0  0  0  0  0  0  0  0  0  0  0
    2.2498   18.0892    7.5502 C   0  0  2  0  0  0  0  0  0  0  0  0
    1.2798   20.9478    8.4246 O   0  0  0  0  0  0  0  0  0  0  0  0
    4.9074   18.7086   10.2689 O   0  0  0  0  0  0  0  0  0  0  0  0
    5.3794   18.4146   12.9593 O   0  0  0  0  0  0  0  0  0  0  0  0
    2.6899   17.5213    6.3371 O   0  0  0  0  0  0  0  0  0  0  0  0
    2.4626   17.1946    8.7623 C   0  0  2  0  0  0  0  0  0  0  0  0
    0.2271   21.9257    6.6764 N   0  0  0  0  0  0  0  0  0  0  0  0
    4.1375   20.8124   12.0814 O   0  0  0  0  0  0  0  0  0  0  0  0
    3.1443   19.5768   14.2099 O   0  0  0  0  0  0  0  0  0  0  0  0
    2.2639   15.8390    8.4377 O   0  0  0  0  0  0  0  0  0  0  0  0
   -0.4812   21.8444    5.5184 C   0  0  0  0  0  0  0  0  0  0  0  0
    1.3463   17.6708    9.7145 C   0  0  2  0  0  0  0  0  0  0  0  0
   -0.8225   22.8966    4.9106 O   0  0  0  0  0  0  0  0  0  0  0  0
    0.3711   18.3857    8.9664 O   0  0  0  0  0  0  0  0  0  0  0  0
   -0.8165   20.5913    5.0105 C   0  0  0  0  0  0  0  0  0  0  0  0
    1.8902   18.5821   10.8273 C   0  0  0  0  0  0  0  0  0  0  0  0
    2.3482   19.7686   10.2215 O   0  0  0  0  0  0  0  0  0  0  0  0
   -0.4112   19.4536    5.7095 C   0  0  0  0  0  0  0  0  0  0  0  0
    0.4523   21.0760   17.7569 H   0  0  0  0  0  0  0  0  0  0  0  0
   -0.5061   21.6150   16.3228 H   0  0  0  0  0  0  0  0  0  0  0  0
    0.7482   23.2297   16.0529 H   0  0  0  0  0  0  0  0  0  0  0  0
    1.2630   20.7649   14.8255 H   0  0  0  0  0  0  0  0  0  0  0  0
    0.1129   18.7491   16.8666 H   0  0  0  0  0  0  0  0  0  0  0  0
   -0.6556   19.6978   14.2558 H   0  0  0  0  0  0  0  0  0  0  0  0
    1.1158   18.1748   14.0052 H   0  0  0  0  0  0  0  0  0  0  0  0
    0.5455   16.1374   14.4608 H   0  0  0  0  0  0  0  0  0  0  0  0
    2.3676   17.5004   16.7706 H   0  0  0  0  0  0  0  0  0  0  0  0
    3.2254   15.9521   15.6862 H   0  0  0  0  0  0  0  0  0  0  0  0
    4.2446   18.9901   15.8985 H   0  0  0  0  0  0  0  0  0  0  0  0
    0.2410   17.4281    7.1842 H   0  0  0  0  0  0  0  0  0  0  0  0
    2.8135   19.0305    7.7107 H   0  0  0  0  0  0  0  0  0  0  0  0
    4.7110   18.4644    9.3294 H   0  0  0  0  0  0  0  0  0  0  0  0
    6.2809   18.6944   12.6591 H   0  0  0  0  0  0  0  0  0  0  0  0
    2.1149   16.7410    6.1256 H   0  0  0  0  0  0  0  0  0  0  0  0
    3.4876   17.3435    9.1766 H   0  0  0  0  0  0  0  0  0  0  0  0
    0.4852   22.8681    7.0498 H   0  0  0  0  0  0  0  0  0  0  0  0
    1.4224   15.5629    8.8862 H   0  0  0  0  0  0  0  0  0  0  0  0
    0.8553   16.7977   10.1990 H   0  0  0  0  0  0  0  0  0  0  0  0
   -1.3648   20.4969    4.0812 H   0  0  0  0  0  0  0  0  0  0  0  0
    2.6755   18.0281   11.3893 H   0  0  0  0  0  0  0  0  0  0  0  0
    1.0662   18.8327   11.5290 H   0  0  0  0  0  0  0  0  0  0  0  0
   -0.6372   18.4884    5.2787 H   0  0  0  0  0  0  0  0  0  0  0  0
  4  3  1  0
  5  3  1  0
  6  5  1  0
  7  5  1  0
  7  8  1  0
  9  7  1  0
  9 10  1  0
 11  9  1  0
 11 12  1  0
 13 11  1  0
 13  6  1  0
 14 15  1  0
 16  1  2  0
 17  2  2  0
 18 15  1  0
 19 14  1  0
 20 18  2  0
  1 21  1  1
  2 22  1  6
 19 23  1  0
 24 19  1  0
 25 18  1  0
 26  1  1  0
 26  2  1  0
 13 27  1  0
 27  2  1  0
 24 28  1  0
 29 25  1  0
 30 24  1  0
 31 29  2  0
 32 30  1  0
 32 14  1  0
 33 29  1  0
 30 34  1  0
 35 34  1  0
 35  1  1  0
 36 33  2  0
 36 15  1  0
  3 37  1  0
  3 38  1  0
  4 39  1  0
  5 40  1  6
  7 41  1  1
  8 42  1  0
  9 43  1  6
 10 44  1  0
 11 45  1  1
 12 46  1  0
 13 47  1  1
 14 48  1  6
 19 49  1  1
 21 50  1  0
 22 51  1  0
 23 52  1  0
 24 53  1  1
 25 54  1  0
 28 55  1  0
 30 56  1  1
 33 57  1  0
 34 58  1  0
 34 59  1  0
 36 60  1  0
M  END
