
     RDKit          3D

 61 65  0  0  0  0  0  0  0  0999 V2000
    3.2824   -5.6357  -31.3943 N   0  0  0  0  0  0  0  0  0  0  0  0
    4.4704   -5.9079  -30.5933 C   0  0  0  0  0  0  0  0  0  0  0  0
    4.1967   -6.3950  -29.1530 C   0  0  0  0  0  0  0  0  0  0  0  0
    2.8682   -6.9909  -28.8876 N   0  0  0  0  0  0  0  0  0  0  0  0
    1.9171   -7.2684  -29.9801 C   0  0  0  0  0  0  0  0  0  0  0  0
    2.2373   -6.6555  -31.3651 C   0  0  0  0  0  0  0  0  0  0  0  0
    3.6084   -5.1944  -32.7656 C   0  0  0  0  0  0  0  0  0  0  0  0
    2.4695   -7.2600  -27.4938 C   0  0  0  0  0  0  0  0  0  0  0  0
    1.3244   -8.0272  -27.1577 C   0  0  0  0  0  0  0  0  0  0  0  0
    0.9822   -8.2271  -25.7978 C   0  0  0  0  0  0  0  0  0  0  0  0
    1.7659   -7.6750  -24.8319 N   0  0  0  0  0  0  0  0  0  0  0  0
    2.8644   -6.9368  -25.1560 C   0  0  0  0  0  0  0  0  0  0  0  0
    3.2000   -6.7433  -26.4645 N   0  0  0  0  0  0  0  0  0  0  0  0
   -0.1931   -9.0088  -25.4753 N   0  0  0  0  0  0  0  0  0  0  0  0
   -0.9238   -9.1328  -24.2309 C   0  0  0  0  0  0  0  0  0  0  0  0
   -0.4438   -9.0535  -22.9328 C   0  0  0  0  0  0  0  0  0  0  0  0
   -1.5820   -9.2138  -22.1457 C   0  0  0  0  0  0  0  0  0  0  0  0
   -2.6670   -9.3886  -22.9290 N   0  0  0  0  0  0  0  0  0  0  0  0
   -2.2609   -9.3323  -24.1884 N   0  0  0  0  0  0  0  0  0  0  0  0
   -1.6343   -9.2271  -20.6499 C   0  0  0  0  0  0  0  0  0  0  0  0
    3.9240   -6.2013  -23.8900 S   0  0  0  0  0  0  0  0  0  0  0  0
    3.1389   -6.7773  -22.3800 C   0  0  0  0  0  0  0  0  0  0  0  0
    1.8479   -7.3106  -22.4286 C   0  0  0  0  0  0  0  0  0  0  0  0
    1.2097   -7.7033  -21.2492 C   0  0  0  0  0  0  0  0  0  0  0  0
    1.8488   -7.5701  -19.9992 C   0  0  0  0  0  0  0  0  0  0  0  0
    3.1359   -7.0028  -19.9564 C   0  0  0  0  0  0  0  0  0  0  0  0
    3.7674   -6.5962  -21.1430 C   0  0  0  0  0  0  0  0  0  0  0  0
    1.1456   -8.0357  -18.8296 N   0  0  0  0  0  0  0  0  0  0  0  0
    1.5161   -8.0598  -17.4399 C   0  0  0  0  0  0  0  0  0  0  0  0
    2.6354   -7.6432  -17.0322 O   0  0  0  0  0  0  0  0  0  0  0  0
    0.4531   -8.5833  -16.4907 C   0  0  0  0  0  0  0  0  0  0  0  0
   -0.4314   -9.6827  -17.0771 C   0  0  0  0  0  0  0  0  0  0  0  0
    0.4890   -9.9820  -15.9039 C   0  0  0  0  0  0  0  0  0  0  0  0
    5.0722   -6.6926  -31.1052 H   0  0  0  0  0  0  0  0  0  0  0  0
    5.1054   -4.9952  -30.5461 H   0  0  0  0  0  0  0  0  0  0  0  0
    4.3139   -5.5098  -28.4902 H   0  0  0  0  0  0  0  0  0  0  0  0
    4.9838   -7.1220  -28.8569 H   0  0  0  0  0  0  0  0  0  0  0  0
    1.8061   -8.3693  -30.0886 H   0  0  0  0  0  0  0  0  0  0  0  0
    0.9228   -6.8700  -29.6801 H   0  0  0  0  0  0  0  0  0  0  0  0
    1.3016   -6.2291  -31.7908 H   0  0  0  0  0  0  0  0  0  0  0  0
    2.5365   -7.4911  -32.0381 H   0  0  0  0  0  0  0  0  0  0  0  0
    2.8927   -4.4123  -33.0985 H   0  0  0  0  0  0  0  0  0  0  0  0
    4.6261   -4.7493  -32.7942 H   0  0  0  0  0  0  0  0  0  0  0  0
    3.5661   -6.0512  -33.4732 H   0  0  0  0  0  0  0  0  0  0  0  0
    0.7105   -8.4726  -27.9282 H   0  0  0  0  0  0  0  0  0  0  0  0
   -0.5601   -9.6127  -26.2456 H   0  0  0  0  0  0  0  0  0  0  0  0
    0.5678   -8.8824  -22.5990 H   0  0  0  0  0  0  0  0  0  0  0  0
   -2.8960   -9.4310  -25.0111 H   0  0  0  0  0  0  0  0  0  0  0  0
   -1.2632  -10.2044  -20.2801 H   0  0  0  0  0  0  0  0  0  0  0  0
   -1.0017   -8.4106  -20.2443 H   0  0  0  0  0  0  0  0  0  0  0  0
   -2.6778   -9.0785  -20.3016 H   0  0  0  0  0  0  0  0  0  0  0  0
    1.3396   -7.4236  -23.3778 H   0  0  0  0  0  0  0  0  0  0  0  0
    0.2148   -8.1259  -21.3139 H   0  0  0  0  0  0  0  0  0  0  0  0
    3.6647   -6.8657  -19.0274 H   0  0  0  0  0  0  0  0  0  0  0  0
    4.7548   -6.1544  -21.0974 H   0  0  0  0  0  0  0  0  0  0  0  0
    0.1990   -8.4370  -19.0231 H   0  0  0  0  0  0  0  0  0  0  0  0
   -0.1121   -7.8404  -15.8875 H   0  0  0  0  0  0  0  0  0  0  0  0
   -1.5045   -9.6155  -16.7990 H   0  0  0  0  0  0  0  0  0  0  0  0
   -0.0871  -10.1354  -18.0311 H   0  0  0  0  0  0  0  0  0  0  0  0
   -0.0329  -10.0831  -14.9289 H   0  0  0  0  0  0  0  0  0  0  0  0
    1.3862  -10.5808  -16.1677 H   0  0  0  0  0  0  0  0  0  0  0  0
  2  1  1  0
  3  2  1  0
  4  3  1  0
  5  4  1  0
  6  5  1  0
  6  1  1  0
  7  1  1  0
  8  4  1  0
  9  8  2  0
 10  9  1  0
 11 10  2  0
 12 11  1  0
 13  8  1  0
 13 12  2  0
 14 10  1  0
 15 14  1  0
 16 15  2  0
 17 16  1  0
 18 17  2  0
 19 18  1  0
 19 15  1  0
 20 17  1  0
 21 12  1  0
 22 21  1  0
 23 22  2  0
 24 23  1  0
 25 24  2  0
 26 25  1  0
 27 22  1  0
 27 26  2  0
 28 25  1  0
 29 28  1  0
 30 29  2  0
 31 29  1  0
 32 31  1  0
 33 32  1  0
 33 31  1  0
  2 34  1  0
  2 35  1  0
  3 36  1  0
  3 37  1  0
  5 38  1  0
  5 39  1  0
  6 40  1  0
  6 41  1  0
  7 42  1  0
  7 43  1  0
  7 44  1  0
  9 45  1  0
 14 46  1  0
 16 47  1  0
 19 48  1  0
 20 49  1  0
 20 50  1  0
 20 51  1  0
 23 52  1  0
 24 53  1  0
 26 54  1  0
 27 55  1  0
 28 56  1  0
 31 57  1  0
 32 58  1  0
 32 59  1  0
 33 60  1  0
 33 61  1  0
M  END
