
     RDKit          3D

 85 87  0  0  0  0  0  0  0  0999 V2000
   14.3533   17.6391   35.7387 C   0  0  1  0  0  0  0  0  0  0  0  0
   13.3674   17.0257   36.5330 O   0  0  0  0  0  0  0  0  0  0  0  0
   15.0620   16.5926   34.8183 C   0  0  2  0  0  0  0  0  0  0  0  0
   17.1843   17.7748   34.8397 O   0  0  0  0  0  0  0  0  0  0  0  0
   16.1743   17.2839   33.9926 C   0  0  2  0  0  0  0  0  0  0  0  0
   15.6022   18.4290   33.1271 C   0  0  0  0  0  0  0  0  0  0  0  0
   14.7686   19.4018   33.9390 C   0  0  0  0  0  0  0  0  0  0  0  0
   14.9584   20.7277   33.7301 C   0  0  0  0  0  0  0  0  0  0  0  0
   14.2718   21.8138   34.4512 C   0  0  0  0  0  0  0  0  0  0  0  0
   14.2165   23.0986   34.0227 C   0  0  0  0  0  0  0  0  0  0  0  0
   14.8265   23.6055   32.7126 C   0  0  0  0  0  0  0  0  0  0  0  0
   13.7915   18.7821   34.8982 C   0  0  0  0  0  0  0  0  0  0  0  0
   13.8032   24.3995   31.8578 C   0  0  0  0  0  0  0  0  0  0  0  0
   12.9331   25.4018   32.6721 C   0  0  0  0  0  0  0  0  0  0  0  0
   12.3231   24.7640   33.9594 C   0  0  1  0  0  0  0  0  0  0  0  0
   13.4783   24.1745   34.7949 C   0  0  1  0  0  0  0  0  0  0  0  0
   12.8620   23.9126   36.1858 C   0  0  0  0  0  0  0  0  0  0  0  0
   11.7544   24.9802   36.3334 C   0  0  0  0  0  0  0  0  0  0  0  0
   11.7519   25.7703   35.0039 C   0  0  2  0  0  0  0  0  0  0  0  0
   11.2682   23.6812   33.5568 C   0  0  0  0  0  0  0  0  0  0  0  0
   12.4833   19.1070   34.9040 C   0  0  0  0  0  0  0  0  0  0  0  0
   10.4397   26.5674   34.6503 C   0  0  2  0  0  0  0  0  0  0  0  0
   10.7112   28.0833   34.7348 C   0  0  0  0  0  0  0  0  0  0  0  0
    9.1534   26.2278   35.4692 C   0  0  0  0  0  0  0  0  0  0  0  0
    8.1810   25.3265   34.6714 C   0  0  0  0  0  0  0  0  0  0  0  0
    6.6964   25.6677   34.9287 C   0  0  0  0  0  0  0  0  0  0  0  0
    5.7299   25.1543   33.8150 C   0  0  0  0  0  0  0  0  0  0  0  0
    4.5264   24.6982   34.3896 O   0  0  0  0  0  0  0  0  0  0  0  0
    5.3867   26.2672   32.8084 C   0  0  0  0  0  0  0  0  0  0  0  0
    6.3920   23.9947   33.0463 C   0  0  0  0  0  0  0  0  0  0  0  0
   14.1524   16.0155   33.8823 O   0  0  0  0  0  0  0  0  0  0  0  0
   13.2649   15.0775   34.4635 C   0  0  0  0  0  0  0  0  0  0  0  0
   13.7923   13.6294   34.3506 C   0  0  0  0  0  0  0  0  0  0  0  0
   15.1055   13.5524   33.5564 C   0  0  0  0  0  0  0  0  0  0  0  0
   14.8772   13.1590   32.2262 O   0  0  0  0  0  0  0  0  0  0  0  0
   15.1165   18.0883   36.4163 H   0  0  0  0  0  0  0  0  0  0  0  0
   12.6164   17.6711   36.6067 H   0  0  0  0  0  0  0  0  0  0  0  0
   15.5545   15.8231   35.4578 H   0  0  0  0  0  0  0  0  0  0  0  0
   17.9827   17.9380   34.2725 H   0  0  0  0  0  0  0  0  0  0  0  0
   16.6144   16.5175   33.3117 H   0  0  0  0  0  0  0  0  0  0  0  0
   16.4484   18.9343   32.6110 H   0  0  0  0  0  0  0  0  0  0  0  0
   14.9561   18.0001   32.3311 H   0  0  0  0  0  0  0  0  0  0  0  0
   15.6978   21.0214   32.9976 H   0  0  0  0  0  0  0  0  0  0  0  0
   13.7717   21.5250   35.3614 H   0  0  0  0  0  0  0  0  0  0  0  0
   15.2238   22.7917   32.0768 H   0  0  0  0  0  0  0  0  0  0  0  0
   15.6780   24.2739   32.9630 H   0  0  0  0  0  0  0  0  0  0  0  0
   14.3503   24.9580   31.0681 H   0  0  0  0  0  0  0  0  0  0  0  0
   13.1376   23.6809   31.3340 H   0  0  0  0  0  0  0  0  0  0  0  0
   13.5721   26.2674   32.9534 H   0  0  0  0  0  0  0  0  0  0  0  0
   12.1235   25.7938   32.0198 H   0  0  0  0  0  0  0  0  0  0  0  0
   14.2419   24.9726   34.9623 H   0  0  0  0  0  0  0  0  0  0  0  0
   13.6281   24.0093   36.9855 H   0  0  0  0  0  0  0  0  0  0  0  0
   12.3868   22.9127   36.2515 H   0  0  0  0  0  0  0  0  0  0  0  0
   11.9760   25.6601   37.1846 H   0  0  0  0  0  0  0  0  0  0  0  0
   10.7794   24.4862   36.5250 H   0  0  0  0  0  0  0  0  0  0  0  0
   12.5460   26.5471   35.1185 H   0  0  0  0  0  0  0  0  0  0  0  0
   10.2786   23.9284   33.9952 H   0  0  0  0  0  0  0  0  0  0  0  0
   11.5642   22.6660   33.8885 H   0  0  0  0  0  0  0  0  0  0  0  0
   11.1410   23.6249   32.4571 H   0  0  0  0  0  0  0  0  0  0  0  0
   11.7763   18.6169   35.5593 H   0  0  0  0  0  0  0  0  0  0  0  0
   12.1072   19.8757   34.2409 H   0  0  0  0  0  0  0  0  0  0  0  0
   10.2370   26.3524   33.5789 H   0  0  0  0  0  0  0  0  0  0  0  0
    9.8563   28.6541   34.3135 H   0  0  0  0  0  0  0  0  0  0  0  0
   11.6309   28.3534   34.1759 H   0  0  0  0  0  0  0  0  0  0  0  0
   10.8647   28.3941   35.7903 H   0  0  0  0  0  0  0  0  0  0  0  0
    8.6323   27.1593   35.7823 H   0  0  0  0  0  0  0  0  0  0  0  0
    9.4193   25.6889   36.3965 H   0  0  0  0  0  0  0  0  0  0  0  0
    8.4089   25.4348   33.5905 H   0  0  0  0  0  0  0  0  0  0  0  0
    8.3451   24.2632   34.9516 H   0  0  0  0  0  0  0  0  0  0  0  0
    6.5915   26.7729   35.0045 H   0  0  0  0  0  0  0  0  0  0  0  0
    6.3975   25.2446   35.9133 H   0  0  0  0  0  0  0  0  0  0  0  0
    3.8289   25.3868   34.2278 H   0  0  0  0  0  0  0  0  0  0  0  0
    4.4600   26.7979   33.1124 H   0  0  0  0  0  0  0  0  0  0  0  0
    5.2109   25.8381   31.7984 H   0  0  0  0  0  0  0  0  0  0  0  0
    6.2147   27.0055   32.7428 H   0  0  0  0  0  0  0  0  0  0  0  0
    5.6965   23.5884   32.2806 H   0  0  0  0  0  0  0  0  0  0  0  0
    6.6598   23.1694   33.7405 H   0  0  0  0  0  0  0  0  0  0  0  0
    7.3190   24.3389   32.5388 H   0  0  0  0  0  0  0  0  0  0  0  0
   12.3064   15.1402   33.9057 H   0  0  0  0  0  0  0  0  0  0  0  0
   13.0074   15.3578   35.5087 H   0  0  0  0  0  0  0  0  0  0  0  0
   13.9684   13.2200   35.3695 H   0  0  0  0  0  0  0  0  0  0  0  0
   13.0358   12.9787   33.8606 H   0  0  0  0  0  0  0  0  0  0  0  0
   15.7799   12.8107   34.0333 H   0  0  0  0  0  0  0  0  0  0  0  0
   15.6205   14.5390   33.5844 H   0  0  0  0  0  0  0  0  0  0  0  0
   14.0410   13.6104   31.9391 H   0  0  0  0  0  0  0  0  0  0  0  0
  1  2  1  0
  3  1  1  0
  5  3  1  0
  5  4  1  0
  6  5  1  0
  7  6  1  0
  8  7  2  3
  9  8  1  0
 10  9  2  3
 11 10  1  0
 12  7  1  0
 12  1  1  0
 13 11  1  0
 14 13  1  0
 15 14  1  0
 16 15  1  0
 16 10  1  0
 16 17  1  0
 18 17  1  0
 19 18  1  0
 19 15  1  0
 15 20  1  6
 21 12  2  0
 22 19  1  0
 22 23  1  0
 24 22  1  0
 25 24  1  0
 26 25  1  0
 27 26  1  0
 28 27  1  0
 27 29  1  0
 30 27  1  0
  3 31  1  0
 32 31  1  0
 33 32  1  0
 34 33  1  0
 35 34  1  0
  1 36  1  1
  2 37  1  0
  3 38  1  1
  4 39  1  0
  5 40  1  6
  6 41  1  0
  6 42  1  0
  8 43  1  0
  9 44  1  0
 11 45  1  0
 11 46  1  0
 13 47  1  0
 13 48  1  0
 14 49  1  0
 14 50  1  0
 16 51  1  1
 17 52  1  0
 17 53  1  0
 18 54  1  0
 18 55  1  0
 19 56  1  1
 20 57  1  0
 20 58  1  0
 20 59  1  0
 21 60  1  0
 21 61  1  0
 22 62  1  6
 23 63  1  0
 23 64  1  0
 23 65  1  0
 24 66  1  0
 24 67  1  0
 25 68  1  0
 25 69  1  0
 26 70  1  0
 26 71  1  0
 28 72  1  0
 29 73  1  0
 29 74  1  0
 29 75  1  0
 30 76  1  0
 30 77  1  0
 30 78  1  0
 32 79  1  0
 32 80  1  0
 33 81  1  0
 33 82  1  0
 34 83  1  0
 34 84  1  0
 35 85  1  0
M  END
