
     RDKit          3D

 53 55  0  0  0  0  0  0  0  0999 V2000
    9.8352   24.8563   45.9820 Cl  0  0  0  0  0  0  0  0  0  0  0  0
   10.3130   23.3494   46.7319 C   0  0  0  0  0  0  0  0  0  0  0  0
    8.6870   17.5479   50.4553 N   0  0  0  0  0  0  0  0  0  0  0  0
   10.3867   16.4269   48.7743 O   0  0  0  0  0  0  0  0  0  0  0  0
   10.2316   17.5939   49.7006 S   0  0  0  0  0  0  0  0  0  0  0  0
   11.3583   22.5249   46.3346 C   0  0  0  0  0  0  0  0  0  0  0  0
    5.5283   18.3121   49.0984 N   0  0  0  0  0  0  0  0  0  0  0  0
   11.2875   17.5286   50.7553 O   0  0  0  0  0  0  0  0  0  0  0  0
   11.4802   21.3915   47.1412 C   0  0  0  0  0  0  0  0  0  0  0  0
    3.6777   19.4316   50.8946 N   0  0  0  0  0  0  0  0  0  0  0  0
    7.4831   19.5349   48.6465 O   0  0  0  0  0  0  0  0  0  0  0  0
   10.5269   21.3421   48.1676 C   0  0  0  0  0  0  0  0  0  0  0  0
    2.2580   19.5060   49.0477 O   0  0  0  0  0  0  0  0  0  0  0  0
    4.3984   20.5877   53.2993 O   0  0  0  0  0  0  0  0  0  0  0  0
   10.4244   19.0079   48.7293 C   0  0  0  0  0  0  0  0  0  0  0  0
    9.5366   22.7016   48.0726 S   0  0  0  0  0  0  0  0  0  0  0  0
   10.0268   20.6490   50.5894 C   0  0  0  0  0  0  0  0  0  0  0  0
   10.3596   20.2712   49.1651 C   0  0  0  0  0  0  0  0  0  0  0  0
    7.6251   17.2610   49.4912 C   0  0  1  0  0  0  0  0  0  0  0  0
    6.5155   16.4451   50.1780 C   0  0  0  0  0  0  0  0  0  0  0  0
    5.1844   17.0390   49.7137 C   0  0  0  0  0  0  0  0  0  0  0  0
    6.9225   18.4749   49.0379 C   0  0  0  0  0  0  0  0  0  0  0  0
    4.5691   19.2426   48.5222 C   0  0  1  0  0  0  0  0  0  0  0  0
    4.1183   18.7382   47.1541 C   0  0  0  0  0  0  0  0  0  0  0  0
    3.4370   19.4247   49.4822 C   0  0  0  0  0  0  0  0  0  0  0  0
    4.9724   19.0884   51.5010 C   0  0  0  0  0  0  0  0  0  0  0  0
    5.4149   20.2512   52.3741 C   0  0  0  0  0  0  0  0  0  0  0  0
    3.2394   21.0378   52.6210 C   0  0  0  0  0  0  0  0  0  0  0  0
    2.6436   19.8960   51.8130 C   0  0  0  0  0  0  0  0  0  0  0  0
    8.5197   18.4308   50.9866 H   0  0  0  0  0  0  0  0  0  0  0  0
   12.0079   22.7381   45.4961 H   0  0  0  0  0  0  0  0  0  0  0  0
   12.2526   20.6502   46.9867 H   0  0  0  0  0  0  0  0  0  0  0  0
   10.5863   18.8064   47.6785 H   0  0  0  0  0  0  0  0  0  0  0  0
    8.9285   20.7508   50.7062 H   0  0  0  0  0  0  0  0  0  0  0  0
   10.4970   21.6216   50.8457 H   0  0  0  0  0  0  0  0  0  0  0  0
   10.4170   19.9086   51.3155 H   0  0  0  0  0  0  0  0  0  0  0  0
    7.9757   16.7123   48.5893 H   0  0  0  0  0  0  0  0  0  0  0  0
    6.5888   15.3698   49.9055 H   0  0  0  0  0  0  0  0  0  0  0  0
    6.5856   16.5354   51.2855 H   0  0  0  0  0  0  0  0  0  0  0  0
    4.5007   17.1855   50.5773 H   0  0  0  0  0  0  0  0  0  0  0  0
    4.7082   16.3737   48.9621 H   0  0  0  0  0  0  0  0  0  0  0  0
    5.0419   20.2368   48.3633 H   0  0  0  0  0  0  0  0  0  0  0  0
    3.0374   18.9520   47.0126 H   0  0  0  0  0  0  0  0  0  0  0  0
    4.6868   19.2337   46.3383 H   0  0  0  0  0  0  0  0  0  0  0  0
    4.2675   17.6395   47.0830 H   0  0  0  0  0  0  0  0  0  0  0  0
    4.8618   18.1695   52.1165 H   0  0  0  0  0  0  0  0  0  0  0  0
    5.7803   18.9300   50.7761 H   0  0  0  0  0  0  0  0  0  0  0  0
    6.3232   19.9519   52.9388 H   0  0  0  0  0  0  0  0  0  0  0  0
    5.6892   21.1301   51.7465 H   0  0  0  0  0  0  0  0  0  0  0  0
    3.4651   21.9114   51.9671 H   0  0  0  0  0  0  0  0  0  0  0  0
    2.4950   21.3703   53.3748 H   0  0  0  0  0  0  0  0  0  0  0  0
    1.7343   20.2591   51.2890 H   0  0  0  0  0  0  0  0  0  0  0  0
    2.3485   19.0657   52.4910 H   0  0  0  0  0  0  0  0  0  0  0  0
  2  1  1  0
  5  4  2  0
  5  3  1  0
  6  2  2  0
  8  5  2  0
  9  6  1  0
 12  9  2  0
 15  5  1  0
 16 12  1  0
 16  2  1  0
 18 17  1  0
 18 15  2  3
 18 12  1  0
 19  3  1  0
 20 19  1  0
 21  7  1  0
 21 20  1  0
 22  7  1  0
 22 11  2  0
 22 19  1  0
 23  7  1  0
 23 24  1  0
 25 23  1  0
 25 13  2  0
 25 10  1  0
 26 10  1  0
 27 26  1  0
 27 14  1  0
 28 14  1  0
 29 28  1  0
 29 10  1  0
  3 30  1  0
  6 31  1  0
  9 32  1  0
 15 33  1  0
 17 34  1  0
 17 35  1  0
 17 36  1  0
 19 37  1  6
 20 38  1  0
 20 39  1  0
 21 40  1  0
 21 41  1  0
 23 42  1  6
 24 43  1  0
 24 44  1  0
 24 45  1  0
 26 46  1  0
 26 47  1  0
 27 48  1  0
 27 49  1  0
 28 50  1  0
 28 51  1  0
 29 52  1  0
 29 53  1  0
M  END
